
---------- Begin Simulation Statistics ----------
sim_seconds                                  1.107014                       # Number of seconds simulated
sim_ticks                                1107014396000                       # Number of ticks simulated
final_tick                               1107014396000                       # Number of ticks from beginning of simulation (restored from checkpoints and never reset)
sim_freq                                 1000000000000                       # Frequency of simulated ticks
host_inst_rate                                 771576                       # Simulator instruction rate (inst/s)
host_op_rate                                  1251212                       # Simulator op (including micro ops) rate (op/s)
host_tick_rate                             1694435675                       # Simulator tick rate (ticks/s)
host_mem_usage                                 664436                       # Number of bytes of host memory used
host_seconds                                   653.32                       # Real time elapsed on the host
sim_insts                                   504088759                       # Number of instructions simulated
sim_ops                                     817446099                       # Number of ops (including micro ops) simulated
system.voltage_domain.voltage                       1                       # Voltage in Volts
system.clk_domain.clock                          1000                       # Clock period in ticks
system.mem_ctrls.pwrStateResidencyTicks::UNDEFINED 1107014396000                       # Cumulative time (in ticks) in various power states
system.mem_ctrls.bytes_read::cpu.inst           22656                       # Number of bytes read from this memory
system.mem_ctrls.bytes_read::cpu.data        18408512                       # Number of bytes read from this memory
system.mem_ctrls.bytes_read::total           18431168                       # Number of bytes read from this memory
system.mem_ctrls.bytes_inst_read::cpu.inst        22656                       # Number of instructions bytes read from this memory
system.mem_ctrls.bytes_inst_read::total         22656                       # Number of instructions bytes read from this memory
system.mem_ctrls.bytes_written::writebacks     16954816                       # Number of bytes written to this memory
system.mem_ctrls.bytes_written::total        16954816                       # Number of bytes written to this memory
system.mem_ctrls.num_reads::cpu.inst              354                       # Number of read requests responded to by this memory
system.mem_ctrls.num_reads::cpu.data           287633                       # Number of read requests responded to by this memory
system.mem_ctrls.num_reads::total              287987                       # Number of read requests responded to by this memory
system.mem_ctrls.num_writes::writebacks        264919                       # Number of write requests responded to by this memory
system.mem_ctrls.num_writes::total             264919                       # Number of write requests responded to by this memory
system.mem_ctrls.bw_read::cpu.inst              20466                       # Total read bandwidth from this memory (bytes/s)
system.mem_ctrls.bw_read::cpu.data           16628973                       # Total read bandwidth from this memory (bytes/s)
system.mem_ctrls.bw_read::total              16649438                       # Total read bandwidth from this memory (bytes/s)
system.mem_ctrls.bw_inst_read::cpu.inst         20466                       # Instruction read bandwidth from this memory (bytes/s)
system.mem_ctrls.bw_inst_read::total            20466                       # Instruction read bandwidth from this memory (bytes/s)
system.mem_ctrls.bw_write::writebacks        15315804                       # Write bandwidth from this memory (bytes/s)
system.mem_ctrls.bw_write::total             15315804                       # Write bandwidth from this memory (bytes/s)
system.mem_ctrls.bw_total::writebacks        15315804                       # Total bandwidth to/from this memory (bytes/s)
system.mem_ctrls.bw_total::cpu.inst             20466                       # Total bandwidth to/from this memory (bytes/s)
system.mem_ctrls.bw_total::cpu.data          16628973                       # Total bandwidth to/from this memory (bytes/s)
system.mem_ctrls.bw_total::total             31965243                       # Total bandwidth to/from this memory (bytes/s)
system.pwrStateResidencyTicks::UNDEFINED 1107014396000                       # Cumulative time (in ticks) in various power states
system.cpu_voltage_domain.voltage                   1                       # Voltage in Volts
system.cpu_clk_domain.clock                       500                       # Clock period in ticks
system.cpu.dtb.walker.pwrStateResidencyTicks::UNDEFINED 1107014396000                       # Cumulative time (in ticks) in various power states
system.cpu.dtb.rdAccesses                   238245979                       # TLB accesses on read requests
system.cpu.dtb.wrAccesses                    64374651                       # TLB accesses on write requests
system.cpu.dtb.rdMisses                          5921                       # TLB misses on read requests
system.cpu.dtb.wrMisses                           999                       # TLB misses on write requests
system.cpu.apic_clk_domain.clock                 8000                       # Clock period in ticks
system.cpu.interrupts.pwrStateResidencyTicks::UNDEFINED 1107014396000                       # Cumulative time (in ticks) in various power states
system.cpu.itb.walker.pwrStateResidencyTicks::UNDEFINED 1107014396000                       # Cumulative time (in ticks) in various power states
system.cpu.itb.rdAccesses                           0                       # TLB accesses on read requests
system.cpu.itb.wrAccesses                   677335189                       # TLB accesses on write requests
system.cpu.itb.rdMisses                             0                       # TLB misses on read requests
system.cpu.itb.wrMisses                            36                       # TLB misses on write requests
system.cpu.workload.numSyscalls                     9                       # Number of system calls
system.cpu.pwrStateResidencyTicks::ON    1107014396000                       # Cumulative time (in ticks) in various power states
system.cpu.numCycles                       2214028792                       # number of cpu cycles simulated
system.cpu.numWorkItemsStarted                      0                       # number of work items this cpu started
system.cpu.numWorkItemsCompleted                    0                       # number of work items this cpu completed
system.cpu.committedInsts                   504088759                       # Number of instructions committed
system.cpu.committedOps                     817446099                       # Number of ops (including micro ops) committed
system.cpu.num_int_alu_accesses             812629980                       # Number of integer alu accesses
system.cpu.num_fp_alu_accesses                   1951                       # Number of float alu accesses
system.cpu.num_vec_alu_accesses                     0                       # Number of vector alu accesses
system.cpu.num_func_calls                     9452832                       # number of times a function call or return occured
system.cpu.num_conditional_control_insts     46565889                       # number of instructions that are conditional controls
system.cpu.num_int_insts                    812629980                       # number of integer instructions
system.cpu.num_fp_insts                          1951                       # number of float instructions
system.cpu.num_vec_insts                            0                       # number of vector instructions
system.cpu.num_int_register_reads          1822855569                       # number of times the integer registers were read
system.cpu.num_int_register_writes          705741303                       # number of times the integer registers were written
system.cpu.num_fp_register_reads                 3771                       # number of times the floating registers were read
system.cpu.num_fp_register_writes                1484                       # number of times the floating registers were written
system.cpu.num_vec_register_reads                   0                       # number of times the vector registers were read
system.cpu.num_vec_register_writes                  0                       # number of times the vector registers were written
system.cpu.num_cc_register_reads            297557770                       # number of times the CC registers were read
system.cpu.num_cc_register_writes           279904584                       # number of times the CC registers were written
system.cpu.num_mem_refs                     302620628                       # number of memory refs
system.cpu.num_load_insts                   238245978                       # Number of load instructions
system.cpu.num_store_insts                   64374650                       # Number of store instructions
system.cpu.num_idle_cycles                          0                       # Number of idle cycles
system.cpu.num_busy_cycles                 2214028792                       # Number of busy cycles
system.cpu.not_idle_fraction                        1                       # Percentage of non-idle cycles
system.cpu.idle_fraction                            0                       # Percentage of idle cycles
system.cpu.Branches                          60772145                       # Number of branches fetched
system.cpu.op_class::No_OpClass               1362109      0.17%      0.17% # Class of executed instruction
system.cpu.op_class::IntAlu                 505014352     61.78%     61.95% # Class of executed instruction
system.cpu.op_class::IntMult                        4      0.00%     61.95% # Class of executed instruction
system.cpu.op_class::IntDiv                   8448046      1.03%     62.98% # Class of executed instruction
system.cpu.op_class::FloatAdd                      10      0.00%     62.98% # Class of executed instruction
system.cpu.op_class::FloatCmp                       0      0.00%     62.98% # Class of executed instruction
system.cpu.op_class::FloatCvt                       0      0.00%     62.98% # Class of executed instruction
system.cpu.op_class::FloatMult                      0      0.00%     62.98% # Class of executed instruction
system.cpu.op_class::FloatMultAcc                   0      0.00%     62.98% # Class of executed instruction
system.cpu.op_class::FloatDiv                       0      0.00%     62.98% # Class of executed instruction
system.cpu.op_class::FloatMisc                      0      0.00%     62.98% # Class of executed instruction
system.cpu.op_class::FloatSqrt                      0      0.00%     62.98% # Class of executed instruction
system.cpu.op_class::SimdAdd                      374      0.00%     62.98% # Class of executed instruction
system.cpu.op_class::SimdAddAcc                     0      0.00%     62.98% # Class of executed instruction
system.cpu.op_class::SimdAlu                       68      0.00%     62.98% # Class of executed instruction
system.cpu.op_class::SimdCmp                        0      0.00%     62.98% # Class of executed instruction
system.cpu.op_class::SimdCvt                      108      0.00%     62.98% # Class of executed instruction
system.cpu.op_class::SimdMisc                     214      0.00%     62.98% # Class of executed instruction
system.cpu.op_class::SimdMult                       0      0.00%     62.98% # Class of executed instruction
system.cpu.op_class::SimdMultAcc                    0      0.00%     62.98% # Class of executed instruction
system.cpu.op_class::SimdShift                    186      0.00%     62.98% # Class of executed instruction
system.cpu.op_class::SimdShiftAcc                   0      0.00%     62.98% # Class of executed instruction
system.cpu.op_class::SimdSqrt                       0      0.00%     62.98% # Class of executed instruction
system.cpu.op_class::SimdFloatAdd                   0      0.00%     62.98% # Class of executed instruction
system.cpu.op_class::SimdFloatAlu                   0      0.00%     62.98% # Class of executed instruction
system.cpu.op_class::SimdFloatCmp                   0      0.00%     62.98% # Class of executed instruction
system.cpu.op_class::SimdFloatCvt                   0      0.00%     62.98% # Class of executed instruction
system.cpu.op_class::SimdFloatDiv                   0      0.00%     62.98% # Class of executed instruction
system.cpu.op_class::SimdFloatMisc                  0      0.00%     62.98% # Class of executed instruction
system.cpu.op_class::SimdFloatMult                  0      0.00%     62.98% # Class of executed instruction
system.cpu.op_class::SimdFloatMultAcc               0      0.00%     62.98% # Class of executed instruction
system.cpu.op_class::SimdFloatSqrt                  0      0.00%     62.98% # Class of executed instruction
system.cpu.op_class::MemRead                238245918     29.15%     92.12% # Class of executed instruction
system.cpu.op_class::MemWrite                64374231      7.88%    100.00% # Class of executed instruction
system.cpu.op_class::FloatMemRead                  60      0.00%    100.00% # Class of executed instruction
system.cpu.op_class::FloatMemWrite                419      0.00%    100.00% # Class of executed instruction
system.cpu.op_class::IprAccess                      0      0.00%    100.00% # Class of executed instruction
system.cpu.op_class::InstPrefetch                   0      0.00%    100.00% # Class of executed instruction
system.cpu.op_class::total                  817446099                       # Class of executed instruction
system.cpu.dcache.tags.pwrStateResidencyTicks::UNDEFINED 1107014396000                       # Cumulative time (in ticks) in various power states
system.cpu.dcache.tags.tagsinuse           511.823369                       # Cycle average of tags in use
system.cpu.dcache.tags.total_refs           302620630                       # Total number of references to valid blocks.
system.cpu.dcache.tags.sampled_refs            682607                       # Sample count of references to valid blocks.
system.cpu.dcache.tags.avg_refs            443.330687                       # Average number of references to valid blocks.
system.cpu.dcache.tags.warmup_cycle            765000                       # Cycle when the warmup percentage was hit.
system.cpu.dcache.tags.occ_blocks::cpu.data   511.823369                       # Average occupied blocks per requestor
system.cpu.dcache.tags.occ_percent::cpu.data     0.999655                       # Average percentage of cache occupancy
system.cpu.dcache.tags.occ_percent::total     0.999655                       # Average percentage of cache occupancy
system.cpu.dcache.tags.occ_task_id_blocks::1024          512                       # Occupied blocks per task id
system.cpu.dcache.tags.age_task_id_blocks_1024::0           10                       # Occupied blocks per task id
system.cpu.dcache.tags.age_task_id_blocks_1024::1           19                       # Occupied blocks per task id
system.cpu.dcache.tags.age_task_id_blocks_1024::2           54                       # Occupied blocks per task id
system.cpu.dcache.tags.age_task_id_blocks_1024::3          422                       # Occupied blocks per task id
system.cpu.dcache.tags.age_task_id_blocks_1024::4            7                       # Occupied blocks per task id
system.cpu.dcache.tags.occ_task_id_percent::1024            1                       # Percentage of cache occupancy per task id
system.cpu.dcache.tags.tag_accesses         605923867                       # Number of tag accesses
system.cpu.dcache.tags.data_accesses        605923867                       # Number of data accesses
system.cpu.dcache.pwrStateResidencyTicks::UNDEFINED 1107014396000                       # Cumulative time (in ticks) in various power states
system.cpu.dcache.ReadReq_hits::cpu.data    237629883                       # number of ReadReq hits
system.cpu.dcache.ReadReq_hits::total       237629883                       # number of ReadReq hits
system.cpu.dcache.WriteReq_hits::cpu.data     64096051                       # number of WriteReq hits
system.cpu.dcache.WriteReq_hits::total       64096051                       # number of WriteReq hits
system.cpu.dcache.demand_hits::cpu.data     301725934                       # number of demand (read+write) hits
system.cpu.dcache.demand_hits::total        301725934                       # number of demand (read+write) hits
system.cpu.dcache.overall_hits::cpu.data    301725934                       # number of overall hits
system.cpu.dcache.overall_hits::total       301725934                       # number of overall hits
system.cpu.dcache.ReadReq_misses::cpu.data       616096                       # number of ReadReq misses
system.cpu.dcache.ReadReq_misses::total        616096                       # number of ReadReq misses
system.cpu.dcache.WriteReq_misses::cpu.data       278600                       # number of WriteReq misses
system.cpu.dcache.WriteReq_misses::total       278600                       # number of WriteReq misses
system.cpu.dcache.demand_misses::cpu.data       894696                       # number of demand (read+write) misses
system.cpu.dcache.demand_misses::total         894696                       # number of demand (read+write) misses
system.cpu.dcache.overall_misses::cpu.data       894696                       # number of overall misses
system.cpu.dcache.overall_misses::total        894696                       # number of overall misses
system.cpu.dcache.ReadReq_miss_latency::cpu.data 104895357000                       # number of ReadReq miss cycles
system.cpu.dcache.ReadReq_miss_latency::total 104895357000                       # number of ReadReq miss cycles
system.cpu.dcache.WriteReq_miss_latency::cpu.data  22992067500                       # number of WriteReq miss cycles
system.cpu.dcache.WriteReq_miss_latency::total  22992067500                       # number of WriteReq miss cycles
system.cpu.dcache.demand_miss_latency::cpu.data 127887424500                       # number of demand (read+write) miss cycles
system.cpu.dcache.demand_miss_latency::total 127887424500                       # number of demand (read+write) miss cycles
system.cpu.dcache.overall_miss_latency::cpu.data 127887424500                       # number of overall miss cycles
system.cpu.dcache.overall_miss_latency::total 127887424500                       # number of overall miss cycles
system.cpu.dcache.ReadReq_accesses::cpu.data    238245979                       # number of ReadReq accesses(hits+misses)
system.cpu.dcache.ReadReq_accesses::total    238245979                       # number of ReadReq accesses(hits+misses)
system.cpu.dcache.WriteReq_accesses::cpu.data     64374651                       # number of WriteReq accesses(hits+misses)
system.cpu.dcache.WriteReq_accesses::total     64374651                       # number of WriteReq accesses(hits+misses)
system.cpu.dcache.demand_accesses::cpu.data    302620630                       # number of demand (read+write) accesses
system.cpu.dcache.demand_accesses::total    302620630                       # number of demand (read+write) accesses
system.cpu.dcache.overall_accesses::cpu.data    302620630                       # number of overall (read+write) accesses
system.cpu.dcache.overall_accesses::total    302620630                       # number of overall (read+write) accesses
system.cpu.dcache.ReadReq_miss_rate::cpu.data     0.002586                       # miss rate for ReadReq accesses
system.cpu.dcache.ReadReq_miss_rate::total     0.002586                       # miss rate for ReadReq accesses
system.cpu.dcache.WriteReq_miss_rate::cpu.data     0.004328                       # miss rate for WriteReq accesses
system.cpu.dcache.WriteReq_miss_rate::total     0.004328                       # miss rate for WriteReq accesses
system.cpu.dcache.demand_miss_rate::cpu.data     0.002956                       # miss rate for demand accesses
system.cpu.dcache.demand_miss_rate::total     0.002956                       # miss rate for demand accesses
system.cpu.dcache.overall_miss_rate::cpu.data     0.002956                       # miss rate for overall accesses
system.cpu.dcache.overall_miss_rate::total     0.002956                       # miss rate for overall accesses
system.cpu.dcache.ReadReq_avg_miss_latency::cpu.data 170258.136719                       # average ReadReq miss latency
system.cpu.dcache.ReadReq_avg_miss_latency::total 170258.136719                       # average ReadReq miss latency
system.cpu.dcache.WriteReq_avg_miss_latency::cpu.data 82527.162599                       # average WriteReq miss latency
system.cpu.dcache.WriteReq_avg_miss_latency::total 82527.162599                       # average WriteReq miss latency
system.cpu.dcache.demand_avg_miss_latency::cpu.data 142939.528622                       # average overall miss latency
system.cpu.dcache.demand_avg_miss_latency::total 142939.528622                       # average overall miss latency
system.cpu.dcache.overall_avg_miss_latency::cpu.data 142939.528622                       # average overall miss latency
system.cpu.dcache.overall_avg_miss_latency::total 142939.528622                       # average overall miss latency
system.cpu.dcache.blocked_cycles::no_mshrs            0                       # number of cycles access was blocked
system.cpu.dcache.blocked_cycles::no_targets            0                       # number of cycles access was blocked
system.cpu.dcache.blocked::no_mshrs                 0                       # number of cycles access was blocked
system.cpu.dcache.blocked::no_targets               0                       # number of cycles access was blocked
system.cpu.dcache.avg_blocked_cycles::no_mshrs          nan                       # average number of cycles each access was blocked
system.cpu.dcache.avg_blocked_cycles::no_targets          nan                       # average number of cycles each access was blocked
system.cpu.dcache.writebacks::writebacks       657659                       # number of writebacks
system.cpu.dcache.writebacks::total            657659                       # number of writebacks
system.cpu.dcache.ReadReq_mshr_misses::cpu.data       616096                       # number of ReadReq MSHR misses
system.cpu.dcache.ReadReq_mshr_misses::total       616096                       # number of ReadReq MSHR misses
system.cpu.dcache.WriteReq_mshr_misses::cpu.data       278600                       # number of WriteReq MSHR misses
system.cpu.dcache.WriteReq_mshr_misses::total       278600                       # number of WriteReq MSHR misses
system.cpu.dcache.demand_mshr_misses::cpu.data       894696                       # number of demand (read+write) MSHR misses
system.cpu.dcache.demand_mshr_misses::total       894696                       # number of demand (read+write) MSHR misses
system.cpu.dcache.overall_mshr_misses::cpu.data       894696                       # number of overall MSHR misses
system.cpu.dcache.overall_mshr_misses::total       894696                       # number of overall MSHR misses
system.cpu.dcache.ReadReq_mshr_miss_latency::cpu.data 104279261000                       # number of ReadReq MSHR miss cycles
system.cpu.dcache.ReadReq_mshr_miss_latency::total 104279261000                       # number of ReadReq MSHR miss cycles
system.cpu.dcache.WriteReq_mshr_miss_latency::cpu.data  22713467500                       # number of WriteReq MSHR miss cycles
system.cpu.dcache.WriteReq_mshr_miss_latency::total  22713467500                       # number of WriteReq MSHR miss cycles
system.cpu.dcache.demand_mshr_miss_latency::cpu.data 126992728500                       # number of demand (read+write) MSHR miss cycles
system.cpu.dcache.demand_mshr_miss_latency::total 126992728500                       # number of demand (read+write) MSHR miss cycles
system.cpu.dcache.overall_mshr_miss_latency::cpu.data 126992728500                       # number of overall MSHR miss cycles
system.cpu.dcache.overall_mshr_miss_latency::total 126992728500                       # number of overall MSHR miss cycles
system.cpu.dcache.ReadReq_mshr_miss_rate::cpu.data     0.002586                       # mshr miss rate for ReadReq accesses
system.cpu.dcache.ReadReq_mshr_miss_rate::total     0.002586                       # mshr miss rate for ReadReq accesses
system.cpu.dcache.WriteReq_mshr_miss_rate::cpu.data     0.004328                       # mshr miss rate for WriteReq accesses
system.cpu.dcache.WriteReq_mshr_miss_rate::total     0.004328                       # mshr miss rate for WriteReq accesses
system.cpu.dcache.demand_mshr_miss_rate::cpu.data     0.002956                       # mshr miss rate for demand accesses
system.cpu.dcache.demand_mshr_miss_rate::total     0.002956                       # mshr miss rate for demand accesses
system.cpu.dcache.overall_mshr_miss_rate::cpu.data     0.002956                       # mshr miss rate for overall accesses
system.cpu.dcache.overall_mshr_miss_rate::total     0.002956                       # mshr miss rate for overall accesses
system.cpu.dcache.ReadReq_avg_mshr_miss_latency::cpu.data 169258.136719                       # average ReadReq mshr miss latency
system.cpu.dcache.ReadReq_avg_mshr_miss_latency::total 169258.136719                       # average ReadReq mshr miss latency
system.cpu.dcache.WriteReq_avg_mshr_miss_latency::cpu.data 81527.162599                       # average WriteReq mshr miss latency
system.cpu.dcache.WriteReq_avg_mshr_miss_latency::total 81527.162599                       # average WriteReq mshr miss latency
system.cpu.dcache.demand_avg_mshr_miss_latency::cpu.data 141939.528622                       # average overall mshr miss latency
system.cpu.dcache.demand_avg_mshr_miss_latency::total 141939.528622                       # average overall mshr miss latency
system.cpu.dcache.overall_avg_mshr_miss_latency::cpu.data 141939.528622                       # average overall mshr miss latency
system.cpu.dcache.overall_avg_mshr_miss_latency::total 141939.528622                       # average overall mshr miss latency
system.cpu.dcache.replacements                 682095                       # number of replacements
system.cpu.dtb_walker_cache.tags.pwrStateResidencyTicks::UNDEFINED 1107014396000                       # Cumulative time (in ticks) in various power states
system.cpu.dtb_walker_cache.tags.tagsinuse            0                       # Cycle average of tags in use
system.cpu.dtb_walker_cache.tags.total_refs            0                       # Total number of references to valid blocks.
system.cpu.dtb_walker_cache.tags.sampled_refs            0                       # Sample count of references to valid blocks.
system.cpu.dtb_walker_cache.tags.avg_refs          nan                       # Average number of references to valid blocks.
system.cpu.dtb_walker_cache.tags.warmup_cycle            0                       # Cycle when the warmup percentage was hit.
system.cpu.dtb_walker_cache.tags.tag_accesses            0                       # Number of tag accesses
system.cpu.dtb_walker_cache.tags.data_accesses            0                       # Number of data accesses
system.cpu.dtb_walker_cache.pwrStateResidencyTicks::UNDEFINED 1107014396000                       # Cumulative time (in ticks) in various power states
system.cpu.dtb_walker_cache.blocked_cycles::no_mshrs            0                       # number of cycles access was blocked
system.cpu.dtb_walker_cache.blocked_cycles::no_targets            0                       # number of cycles access was blocked
system.cpu.dtb_walker_cache.blocked::no_mshrs            0                       # number of cycles access was blocked
system.cpu.dtb_walker_cache.blocked::no_targets            0                       # number of cycles access was blocked
system.cpu.dtb_walker_cache.avg_blocked_cycles::no_mshrs          nan                       # average number of cycles each access was blocked
system.cpu.dtb_walker_cache.avg_blocked_cycles::no_targets          nan                       # average number of cycles each access was blocked
system.cpu.dtb_walker_cache.replacements            0                       # number of replacements
system.cpu.icache.tags.pwrStateResidencyTicks::UNDEFINED 1107014396000                       # Cumulative time (in ticks) in various power states
system.cpu.icache.tags.tagsinuse           277.475635                       # Cycle average of tags in use
system.cpu.icache.tags.total_refs           677335189                       # Total number of references to valid blocks.
system.cpu.icache.tags.sampled_refs               354                       # Sample count of references to valid blocks.
system.cpu.icache.tags.avg_refs          1913376.240113                       # Average number of references to valid blocks.
system.cpu.icache.tags.warmup_cycle            445000                       # Cycle when the warmup percentage was hit.
system.cpu.icache.tags.occ_blocks::cpu.inst   277.475635                       # Average occupied blocks per requestor
system.cpu.icache.tags.occ_percent::cpu.inst     0.541945                       # Average percentage of cache occupancy
system.cpu.icache.tags.occ_percent::total     0.541945                       # Average percentage of cache occupancy
system.cpu.icache.tags.occ_task_id_blocks::1024          304                       # Occupied blocks per task id
system.cpu.icache.tags.age_task_id_blocks_1024::0           13                       # Occupied blocks per task id
system.cpu.icache.tags.age_task_id_blocks_1024::1           22                       # Occupied blocks per task id
system.cpu.icache.tags.age_task_id_blocks_1024::4          269                       # Occupied blocks per task id
system.cpu.icache.tags.occ_task_id_percent::1024     0.593750                       # Percentage of cache occupancy per task id
system.cpu.icache.tags.tag_accesses        1354670732                       # Number of tag accesses
system.cpu.icache.tags.data_accesses       1354670732                       # Number of data accesses
system.cpu.icache.pwrStateResidencyTicks::UNDEFINED 1107014396000                       # Cumulative time (in ticks) in various power states
system.cpu.icache.ReadReq_hits::cpu.inst    677334835                       # number of ReadReq hits
system.cpu.icache.ReadReq_hits::total       677334835                       # number of ReadReq hits
system.cpu.icache.demand_hits::cpu.inst     677334835                       # number of demand (read+write) hits
system.cpu.icache.demand_hits::total        677334835                       # number of demand (read+write) hits
system.cpu.icache.overall_hits::cpu.inst    677334835                       # number of overall hits
system.cpu.icache.overall_hits::total       677334835                       # number of overall hits
system.cpu.icache.ReadReq_misses::cpu.inst          354                       # number of ReadReq misses
system.cpu.icache.ReadReq_misses::total           354                       # number of ReadReq misses
system.cpu.icache.demand_misses::cpu.inst          354                       # number of demand (read+write) misses
system.cpu.icache.demand_misses::total            354                       # number of demand (read+write) misses
system.cpu.icache.overall_misses::cpu.inst          354                       # number of overall misses
system.cpu.icache.overall_misses::total           354                       # number of overall misses
system.cpu.icache.ReadReq_miss_latency::cpu.inst     66205000                       # number of ReadReq miss cycles
system.cpu.icache.ReadReq_miss_latency::total     66205000                       # number of ReadReq miss cycles
system.cpu.icache.demand_miss_latency::cpu.inst     66205000                       # number of demand (read+write) miss cycles
system.cpu.icache.demand_miss_latency::total     66205000                       # number of demand (read+write) miss cycles
system.cpu.icache.overall_miss_latency::cpu.inst     66205000                       # number of overall miss cycles
system.cpu.icache.overall_miss_latency::total     66205000                       # number of overall miss cycles
system.cpu.icache.ReadReq_accesses::cpu.inst    677335189                       # number of ReadReq accesses(hits+misses)
system.cpu.icache.ReadReq_accesses::total    677335189                       # number of ReadReq accesses(hits+misses)
system.cpu.icache.demand_accesses::cpu.inst    677335189                       # number of demand (read+write) accesses
system.cpu.icache.demand_accesses::total    677335189                       # number of demand (read+write) accesses
system.cpu.icache.overall_accesses::cpu.inst    677335189                       # number of overall (read+write) accesses
system.cpu.icache.overall_accesses::total    677335189                       # number of overall (read+write) accesses
system.cpu.icache.ReadReq_miss_rate::cpu.inst     0.000001                       # miss rate for ReadReq accesses
system.cpu.icache.ReadReq_miss_rate::total     0.000001                       # miss rate for ReadReq accesses
system.cpu.icache.demand_miss_rate::cpu.inst     0.000001                       # miss rate for demand accesses
system.cpu.icache.demand_miss_rate::total     0.000001                       # miss rate for demand accesses
system.cpu.icache.overall_miss_rate::cpu.inst     0.000001                       # miss rate for overall accesses
system.cpu.icache.overall_miss_rate::total     0.000001                       # miss rate for overall accesses
system.cpu.icache.ReadReq_avg_miss_latency::cpu.inst 187019.774011                       # average ReadReq miss latency
system.cpu.icache.ReadReq_avg_miss_latency::total 187019.774011                       # average ReadReq miss latency
system.cpu.icache.demand_avg_miss_latency::cpu.inst 187019.774011                       # average overall miss latency
system.cpu.icache.demand_avg_miss_latency::total 187019.774011                       # average overall miss latency
system.cpu.icache.overall_avg_miss_latency::cpu.inst 187019.774011                       # average overall miss latency
system.cpu.icache.overall_avg_miss_latency::total 187019.774011                       # average overall miss latency
system.cpu.icache.blocked_cycles::no_mshrs            0                       # number of cycles access was blocked
system.cpu.icache.blocked_cycles::no_targets            0                       # number of cycles access was blocked
system.cpu.icache.blocked::no_mshrs                 0                       # number of cycles access was blocked
system.cpu.icache.blocked::no_targets               0                       # number of cycles access was blocked
system.cpu.icache.avg_blocked_cycles::no_mshrs          nan                       # average number of cycles each access was blocked
system.cpu.icache.avg_blocked_cycles::no_targets          nan                       # average number of cycles each access was blocked
system.cpu.icache.writebacks::writebacks           50                       # number of writebacks
system.cpu.icache.writebacks::total                50                       # number of writebacks
system.cpu.icache.ReadReq_mshr_misses::cpu.inst          354                       # number of ReadReq MSHR misses
system.cpu.icache.ReadReq_mshr_misses::total          354                       # number of ReadReq MSHR misses
system.cpu.icache.demand_mshr_misses::cpu.inst          354                       # number of demand (read+write) MSHR misses
system.cpu.icache.demand_mshr_misses::total          354                       # number of demand (read+write) MSHR misses
system.cpu.icache.overall_mshr_misses::cpu.inst          354                       # number of overall MSHR misses
system.cpu.icache.overall_mshr_misses::total          354                       # number of overall MSHR misses
system.cpu.icache.ReadReq_mshr_miss_latency::cpu.inst     65851000                       # number of ReadReq MSHR miss cycles
system.cpu.icache.ReadReq_mshr_miss_latency::total     65851000                       # number of ReadReq MSHR miss cycles
system.cpu.icache.demand_mshr_miss_latency::cpu.inst     65851000                       # number of demand (read+write) MSHR miss cycles
system.cpu.icache.demand_mshr_miss_latency::total     65851000                       # number of demand (read+write) MSHR miss cycles
system.cpu.icache.overall_mshr_miss_latency::cpu.inst     65851000                       # number of overall MSHR miss cycles
system.cpu.icache.overall_mshr_miss_latency::total     65851000                       # number of overall MSHR miss cycles
system.cpu.icache.ReadReq_mshr_miss_rate::cpu.inst     0.000001                       # mshr miss rate for ReadReq accesses
system.cpu.icache.ReadReq_mshr_miss_rate::total     0.000001                       # mshr miss rate for ReadReq accesses
system.cpu.icache.demand_mshr_miss_rate::cpu.inst     0.000001                       # mshr miss rate for demand accesses
system.cpu.icache.demand_mshr_miss_rate::total     0.000001                       # mshr miss rate for demand accesses
system.cpu.icache.overall_mshr_miss_rate::cpu.inst     0.000001                       # mshr miss rate for overall accesses
system.cpu.icache.overall_mshr_miss_rate::total     0.000001                       # mshr miss rate for overall accesses
system.cpu.icache.ReadReq_avg_mshr_miss_latency::cpu.inst 186019.774011                       # average ReadReq mshr miss latency
system.cpu.icache.ReadReq_avg_mshr_miss_latency::total 186019.774011                       # average ReadReq mshr miss latency
system.cpu.icache.demand_avg_mshr_miss_latency::cpu.inst 186019.774011                       # average overall mshr miss latency
system.cpu.icache.demand_avg_mshr_miss_latency::total 186019.774011                       # average overall mshr miss latency
system.cpu.icache.overall_avg_mshr_miss_latency::cpu.inst 186019.774011                       # average overall mshr miss latency
system.cpu.icache.overall_avg_mshr_miss_latency::total 186019.774011                       # average overall mshr miss latency
system.cpu.icache.replacements                     50                       # number of replacements
system.cpu.itb_walker_cache.tags.pwrStateResidencyTicks::UNDEFINED 1107014396000                       # Cumulative time (in ticks) in various power states
system.cpu.itb_walker_cache.tags.tagsinuse            0                       # Cycle average of tags in use
system.cpu.itb_walker_cache.tags.total_refs            0                       # Total number of references to valid blocks.
system.cpu.itb_walker_cache.tags.sampled_refs            0                       # Sample count of references to valid blocks.
system.cpu.itb_walker_cache.tags.avg_refs          nan                       # Average number of references to valid blocks.
system.cpu.itb_walker_cache.tags.warmup_cycle            0                       # Cycle when the warmup percentage was hit.
system.cpu.itb_walker_cache.tags.tag_accesses            0                       # Number of tag accesses
system.cpu.itb_walker_cache.tags.data_accesses            0                       # Number of data accesses
system.cpu.itb_walker_cache.pwrStateResidencyTicks::UNDEFINED 1107014396000                       # Cumulative time (in ticks) in various power states
system.cpu.itb_walker_cache.blocked_cycles::no_mshrs            0                       # number of cycles access was blocked
system.cpu.itb_walker_cache.blocked_cycles::no_targets            0                       # number of cycles access was blocked
system.cpu.itb_walker_cache.blocked::no_mshrs            0                       # number of cycles access was blocked
system.cpu.itb_walker_cache.blocked::no_targets            0                       # number of cycles access was blocked
system.cpu.itb_walker_cache.avg_blocked_cycles::no_mshrs          nan                       # average number of cycles each access was blocked
system.cpu.itb_walker_cache.avg_blocked_cycles::no_targets          nan                       # average number of cycles each access was blocked
system.cpu.itb_walker_cache.replacements            0                       # number of replacements
system.l2.tags.pwrStateResidencyTicks::UNDEFINED 1107014396000                       # Cumulative time (in ticks) in various power states
system.l2.tags.tagsinuse                  2045.602304                       # Cycle average of tags in use
system.l2.tags.total_refs                     1577195                       # Total number of references to valid blocks.
system.l2.tags.sampled_refs                    518838                       # Sample count of references to valid blocks.
system.l2.tags.avg_refs                      3.039860                       # Average number of references to valid blocks.
system.l2.tags.warmup_cycle                    434500                       # Cycle when the warmup percentage was hit.
system.l2.tags.occ_blocks::writebacks        1.018538                       # Average occupied blocks per requestor
system.l2.tags.occ_blocks::cpu.inst          0.934572                       # Average occupied blocks per requestor
system.l2.tags.occ_blocks::cpu.data       2043.649194                       # Average occupied blocks per requestor
system.l2.tags.occ_percent::writebacks       0.000497                       # Average percentage of cache occupancy
system.l2.tags.occ_percent::cpu.inst         0.000456                       # Average percentage of cache occupancy
system.l2.tags.occ_percent::cpu.data         0.997876                       # Average percentage of cache occupancy
system.l2.tags.occ_percent::total            0.998829                       # Average percentage of cache occupancy
system.l2.tags.occ_task_id_blocks::1024          2048                       # Occupied blocks per task id
system.l2.tags.age_task_id_blocks_1024::0           28                       # Occupied blocks per task id
system.l2.tags.age_task_id_blocks_1024::1           44                       # Occupied blocks per task id
system.l2.tags.age_task_id_blocks_1024::3          450                       # Occupied blocks per task id
system.l2.tags.age_task_id_blocks_1024::4         1526                       # Occupied blocks per task id
system.l2.tags.occ_task_id_percent::1024            1                       # Percentage of cache occupancy per task id
system.l2.tags.tag_accesses                  13136398                       # Number of tag accesses
system.l2.tags.data_accesses                 13136398                       # Number of data accesses
system.l2.pwrStateResidencyTicks::UNDEFINED 1107014396000                       # Cumulative time (in ticks) in various power states
system.l2.WritebackDirty_hits::writebacks       657659                       # number of WritebackDirty hits
system.l2.WritebackDirty_hits::total           657659                       # number of WritebackDirty hits
system.l2.WritebackClean_hits::writebacks           50                       # number of WritebackClean hits
system.l2.WritebackClean_hits::total               50                       # number of WritebackClean hits
system.l2.UpgradeReq_hits::cpu.data            212089                       # number of UpgradeReq hits
system.l2.UpgradeReq_hits::total               212089                       # number of UpgradeReq hits
system.l2.ReadExReq_hits::cpu.data               3075                       # number of ReadExReq hits
system.l2.ReadExReq_hits::total                  3075                       # number of ReadExReq hits
system.l2.ReadSharedReq_hits::cpu.data         161152                       # number of ReadSharedReq hits
system.l2.ReadSharedReq_hits::total            161152                       # number of ReadSharedReq hits
system.l2.demand_hits::cpu.data                164227                       # number of demand (read+write) hits
system.l2.demand_hits::total                   164227                       # number of demand (read+write) hits
system.l2.overall_hits::cpu.data               164227                       # number of overall hits
system.l2.overall_hits::total                  164227                       # number of overall hits
system.l2.ReadExReq_misses::cpu.data            63436                       # number of ReadExReq misses
system.l2.ReadExReq_misses::total               63436                       # number of ReadExReq misses
system.l2.ReadCleanReq_misses::cpu.inst           354                       # number of ReadCleanReq misses
system.l2.ReadCleanReq_misses::total              354                       # number of ReadCleanReq misses
system.l2.ReadSharedReq_misses::cpu.data       454944                       # number of ReadSharedReq misses
system.l2.ReadSharedReq_misses::total          454944                       # number of ReadSharedReq misses
system.l2.demand_misses::cpu.inst                 354                       # number of demand (read+write) misses
system.l2.demand_misses::cpu.data              518380                       # number of demand (read+write) misses
system.l2.demand_misses::total                 518734                       # number of demand (read+write) misses
system.l2.overall_misses::cpu.inst                354                       # number of overall misses
system.l2.overall_misses::cpu.data             518380                       # number of overall misses
system.l2.overall_misses::total                518734                       # number of overall misses
system.l2.ReadExReq_miss_latency::cpu.data  20036345000                       # number of ReadExReq miss cycles
system.l2.ReadExReq_miss_latency::total   20036345000                       # number of ReadExReq miss cycles
system.l2.ReadCleanReq_miss_latency::cpu.inst     65319500                       # number of ReadCleanReq miss cycles
system.l2.ReadCleanReq_miss_latency::total     65319500                       # number of ReadCleanReq miss cycles
system.l2.ReadSharedReq_miss_latency::cpu.data 101663020000                       # number of ReadSharedReq miss cycles
system.l2.ReadSharedReq_miss_latency::total 101663020000                       # number of ReadSharedReq miss cycles
system.l2.demand_miss_latency::cpu.inst      65319500                       # number of demand (read+write) miss cycles
system.l2.demand_miss_latency::cpu.data  121699365000                       # number of demand (read+write) miss cycles
system.l2.demand_miss_latency::total     121764684500                       # number of demand (read+write) miss cycles
system.l2.overall_miss_latency::cpu.inst     65319500                       # number of overall miss cycles
system.l2.overall_miss_latency::cpu.data 121699365000                       # number of overall miss cycles
system.l2.overall_miss_latency::total    121764684500                       # number of overall miss cycles
system.l2.WritebackDirty_accesses::writebacks       657659                       # number of WritebackDirty accesses(hits+misses)
system.l2.WritebackDirty_accesses::total       657659                       # number of WritebackDirty accesses(hits+misses)
system.l2.WritebackClean_accesses::writebacks           50                       # number of WritebackClean accesses(hits+misses)
system.l2.WritebackClean_accesses::total           50                       # number of WritebackClean accesses(hits+misses)
system.l2.UpgradeReq_accesses::cpu.data        212089                       # number of UpgradeReq accesses(hits+misses)
system.l2.UpgradeReq_accesses::total           212089                       # number of UpgradeReq accesses(hits+misses)
system.l2.ReadExReq_accesses::cpu.data          66511                       # number of ReadExReq accesses(hits+misses)
system.l2.ReadExReq_accesses::total             66511                       # number of ReadExReq accesses(hits+misses)
system.l2.ReadCleanReq_accesses::cpu.inst          354                       # number of ReadCleanReq accesses(hits+misses)
system.l2.ReadCleanReq_accesses::total            354                       # number of ReadCleanReq accesses(hits+misses)
system.l2.ReadSharedReq_accesses::cpu.data       616096                       # number of ReadSharedReq accesses(hits+misses)
system.l2.ReadSharedReq_accesses::total        616096                       # number of ReadSharedReq accesses(hits+misses)
system.l2.demand_accesses::cpu.inst               354                       # number of demand (read+write) accesses
system.l2.demand_accesses::cpu.data            682607                       # number of demand (read+write) accesses
system.l2.demand_accesses::total               682961                       # number of demand (read+write) accesses
system.l2.overall_accesses::cpu.inst              354                       # number of overall (read+write) accesses
system.l2.overall_accesses::cpu.data           682607                       # number of overall (read+write) accesses
system.l2.overall_accesses::total              682961                       # number of overall (read+write) accesses
system.l2.ReadExReq_miss_rate::cpu.data      0.953767                       # miss rate for ReadExReq accesses
system.l2.ReadExReq_miss_rate::total         0.953767                       # miss rate for ReadExReq accesses
system.l2.ReadCleanReq_miss_rate::cpu.inst            1                       # miss rate for ReadCleanReq accesses
system.l2.ReadCleanReq_miss_rate::total             1                       # miss rate for ReadCleanReq accesses
system.l2.ReadSharedReq_miss_rate::cpu.data     0.738430                       # miss rate for ReadSharedReq accesses
system.l2.ReadSharedReq_miss_rate::total     0.738430                       # miss rate for ReadSharedReq accesses
system.l2.demand_miss_rate::cpu.inst                1                       # miss rate for demand accesses
system.l2.demand_miss_rate::cpu.data         0.759412                       # miss rate for demand accesses
system.l2.demand_miss_rate::total            0.759537                       # miss rate for demand accesses
system.l2.overall_miss_rate::cpu.inst               1                       # miss rate for overall accesses
system.l2.overall_miss_rate::cpu.data        0.759412                       # miss rate for overall accesses
system.l2.overall_miss_rate::total           0.759537                       # miss rate for overall accesses
system.l2.ReadExReq_avg_miss_latency::cpu.data 315851.330475                       # average ReadExReq miss latency
system.l2.ReadExReq_avg_miss_latency::total 315851.330475                       # average ReadExReq miss latency
system.l2.ReadCleanReq_avg_miss_latency::cpu.inst 184518.361582                       # average ReadCleanReq miss latency
system.l2.ReadCleanReq_avg_miss_latency::total 184518.361582                       # average ReadCleanReq miss latency
system.l2.ReadSharedReq_avg_miss_latency::cpu.data 223462.711894                       # average ReadSharedReq miss latency
system.l2.ReadSharedReq_avg_miss_latency::total 223462.711894                       # average ReadSharedReq miss latency
system.l2.demand_avg_miss_latency::cpu.inst 184518.361582                       # average overall miss latency
system.l2.demand_avg_miss_latency::cpu.data 234768.634978                       # average overall miss latency
system.l2.demand_avg_miss_latency::total 234734.342650                       # average overall miss latency
system.l2.overall_avg_miss_latency::cpu.inst 184518.361582                       # average overall miss latency
system.l2.overall_avg_miss_latency::cpu.data 234768.634978                       # average overall miss latency
system.l2.overall_avg_miss_latency::total 234734.342650                       # average overall miss latency
system.l2.blocked_cycles::no_mshrs                  0                       # number of cycles access was blocked
system.l2.blocked_cycles::no_targets                0                       # number of cycles access was blocked
system.l2.blocked::no_mshrs                         0                       # number of cycles access was blocked
system.l2.blocked::no_targets                       0                       # number of cycles access was blocked
system.l2.avg_blocked_cycles::no_mshrs            nan                       # average number of cycles each access was blocked
system.l2.avg_blocked_cycles::no_targets          nan                       # average number of cycles each access was blocked
system.l2.writebacks::writebacks               508276                       # number of writebacks
system.l2.writebacks::total                    508276                       # number of writebacks
system.l2.ReadExReq_mshr_misses::cpu.data        63436                       # number of ReadExReq MSHR misses
system.l2.ReadExReq_mshr_misses::total          63436                       # number of ReadExReq MSHR misses
system.l2.ReadCleanReq_mshr_misses::cpu.inst          354                       # number of ReadCleanReq MSHR misses
system.l2.ReadCleanReq_mshr_misses::total          354                       # number of ReadCleanReq MSHR misses
system.l2.ReadSharedReq_mshr_misses::cpu.data       454944                       # number of ReadSharedReq MSHR misses
system.l2.ReadSharedReq_mshr_misses::total       454944                       # number of ReadSharedReq MSHR misses
system.l2.demand_mshr_misses::cpu.inst            354                       # number of demand (read+write) MSHR misses
system.l2.demand_mshr_misses::cpu.data         518380                       # number of demand (read+write) MSHR misses
system.l2.demand_mshr_misses::total            518734                       # number of demand (read+write) MSHR misses
system.l2.overall_mshr_misses::cpu.inst           354                       # number of overall MSHR misses
system.l2.overall_mshr_misses::cpu.data        518380                       # number of overall MSHR misses
system.l2.overall_mshr_misses::total           518734                       # number of overall MSHR misses
system.l2.ReadExReq_mshr_miss_latency::cpu.data  19401985000                       # number of ReadExReq MSHR miss cycles
system.l2.ReadExReq_mshr_miss_latency::total  19401985000                       # number of ReadExReq MSHR miss cycles
system.l2.ReadCleanReq_mshr_miss_latency::cpu.inst     61779500                       # number of ReadCleanReq MSHR miss cycles
system.l2.ReadCleanReq_mshr_miss_latency::total     61779500                       # number of ReadCleanReq MSHR miss cycles
system.l2.ReadSharedReq_mshr_miss_latency::cpu.data  97113580000                       # number of ReadSharedReq MSHR miss cycles
system.l2.ReadSharedReq_mshr_miss_latency::total  97113580000                       # number of ReadSharedReq MSHR miss cycles
system.l2.demand_mshr_miss_latency::cpu.inst     61779500                       # number of demand (read+write) MSHR miss cycles
system.l2.demand_mshr_miss_latency::cpu.data 116515565000                       # number of demand (read+write) MSHR miss cycles
system.l2.demand_mshr_miss_latency::total 116577344500                       # number of demand (read+write) MSHR miss cycles
system.l2.overall_mshr_miss_latency::cpu.inst     61779500                       # number of overall MSHR miss cycles
system.l2.overall_mshr_miss_latency::cpu.data 116515565000                       # number of overall MSHR miss cycles
system.l2.overall_mshr_miss_latency::total 116577344500                       # number of overall MSHR miss cycles
system.l2.ReadExReq_mshr_miss_rate::cpu.data     0.953767                       # mshr miss rate for ReadExReq accesses
system.l2.ReadExReq_mshr_miss_rate::total     0.953767                       # mshr miss rate for ReadExReq accesses
system.l2.ReadCleanReq_mshr_miss_rate::cpu.inst            1                       # mshr miss rate for ReadCleanReq accesses
system.l2.ReadCleanReq_mshr_miss_rate::total            1                       # mshr miss rate for ReadCleanReq accesses
system.l2.ReadSharedReq_mshr_miss_rate::cpu.data     0.738430                       # mshr miss rate for ReadSharedReq accesses
system.l2.ReadSharedReq_mshr_miss_rate::total     0.738430                       # mshr miss rate for ReadSharedReq accesses
system.l2.demand_mshr_miss_rate::cpu.inst            1                       # mshr miss rate for demand accesses
system.l2.demand_mshr_miss_rate::cpu.data     0.759412                       # mshr miss rate for demand accesses
system.l2.demand_mshr_miss_rate::total       0.759537                       # mshr miss rate for demand accesses
system.l2.overall_mshr_miss_rate::cpu.inst            1                       # mshr miss rate for overall accesses
system.l2.overall_mshr_miss_rate::cpu.data     0.759412                       # mshr miss rate for overall accesses
system.l2.overall_mshr_miss_rate::total      0.759537                       # mshr miss rate for overall accesses
system.l2.ReadExReq_avg_mshr_miss_latency::cpu.data 305851.330475                       # average ReadExReq mshr miss latency
system.l2.ReadExReq_avg_mshr_miss_latency::total 305851.330475                       # average ReadExReq mshr miss latency
system.l2.ReadCleanReq_avg_mshr_miss_latency::cpu.inst 174518.361582                       # average ReadCleanReq mshr miss latency
system.l2.ReadCleanReq_avg_mshr_miss_latency::total 174518.361582                       # average ReadCleanReq mshr miss latency
system.l2.ReadSharedReq_avg_mshr_miss_latency::cpu.data 213462.711894                       # average ReadSharedReq mshr miss latency
system.l2.ReadSharedReq_avg_mshr_miss_latency::total 213462.711894                       # average ReadSharedReq mshr miss latency
system.l2.demand_avg_mshr_miss_latency::cpu.inst 174518.361582                       # average overall mshr miss latency
system.l2.demand_avg_mshr_miss_latency::cpu.data 224768.634978                       # average overall mshr miss latency
system.l2.demand_avg_mshr_miss_latency::total 224734.342650                       # average overall mshr miss latency
system.l2.overall_avg_mshr_miss_latency::cpu.inst 174518.361582                       # average overall mshr miss latency
system.l2.overall_avg_mshr_miss_latency::cpu.data 224768.634978                       # average overall mshr miss latency
system.l2.overall_avg_mshr_miss_latency::total 224734.342650                       # average overall mshr miss latency
system.l2.replacements                         516790                       # number of replacements
system.l3.tags.pwrStateResidencyTicks::UNDEFINED 1107014396000                       # Cumulative time (in ticks) in various power states
system.l3.tags.tagsinuse                 16154.026728                       # Cycle average of tags in use
system.l3.tags.total_refs                     1035149                       # Total number of references to valid blocks.
system.l3.tags.sampled_refs                    288001                       # Sample count of references to valid blocks.
system.l3.tags.avg_refs                      3.594255                       # Average number of references to valid blocks.
system.l3.tags.warmup_cycle                    418000                       # Cycle when the warmup percentage was hit.
system.l3.tags.occ_blocks::writebacks        0.893227                       # Average occupied blocks per requestor
system.l3.tags.occ_blocks::cpu.inst          9.213088                       # Average occupied blocks per requestor
system.l3.tags.occ_blocks::cpu.data      16143.920413                       # Average occupied blocks per requestor
system.l3.tags.occ_percent::writebacks       0.000055                       # Average percentage of cache occupancy
system.l3.tags.occ_percent::cpu.inst         0.000562                       # Average percentage of cache occupancy
system.l3.tags.occ_percent::cpu.data         0.985347                       # Average percentage of cache occupancy
system.l3.tags.occ_percent::total            0.985964                       # Average percentage of cache occupancy
system.l3.tags.occ_task_id_blocks::1024         16384                       # Occupied blocks per task id
system.l3.tags.age_task_id_blocks_1024::0           23                       # Occupied blocks per task id
system.l3.tags.age_task_id_blocks_1024::1           38                       # Occupied blocks per task id
system.l3.tags.age_task_id_blocks_1024::4        16323                       # Occupied blocks per task id
system.l3.tags.occ_task_id_percent::1024            1                       # Percentage of cache occupancy per task id
system.l3.tags.tag_accesses               16960185601                       # Number of tag accesses
system.l3.tags.data_accesses              16960185601                       # Number of data accesses
system.l3.pwrStateResidencyTicks::UNDEFINED 1107014396000                       # Cumulative time (in ticks) in various power states
system.l3.WritebackDirty_hits::writebacks       508275                       # number of WritebackDirty hits
system.l3.WritebackDirty_hits::total           508275                       # number of WritebackDirty hits
system.l3.ReadExReq_hits::cpu.data                695                       # number of ReadExReq hits
system.l3.ReadExReq_hits::total                   695                       # number of ReadExReq hits
system.l3.ReadSharedReq_hits::cpu.data         230052                       # number of ReadSharedReq hits
system.l3.ReadSharedReq_hits::total            230052                       # number of ReadSharedReq hits
system.l3.demand_hits::cpu.data                230747                       # number of demand (read+write) hits
system.l3.demand_hits::total                   230747                       # number of demand (read+write) hits
system.l3.overall_hits::cpu.data               230747                       # number of overall hits
system.l3.overall_hits::total                  230747                       # number of overall hits
system.l3.ReadExReq_misses::cpu.data            62741                       # number of ReadExReq misses
system.l3.ReadExReq_misses::total               62741                       # number of ReadExReq misses
system.l3.ReadSharedReq_misses::cpu.inst          354                       # number of ReadSharedReq misses
system.l3.ReadSharedReq_misses::cpu.data       224892                       # number of ReadSharedReq misses
system.l3.ReadSharedReq_misses::total          225246                       # number of ReadSharedReq misses
system.l3.demand_misses::cpu.inst                 354                       # number of demand (read+write) misses
system.l3.demand_misses::cpu.data              287633                       # number of demand (read+write) misses
system.l3.demand_misses::total                 287987                       # number of demand (read+write) misses
system.l3.overall_misses::cpu.inst                354                       # number of overall misses
system.l3.overall_misses::cpu.data             287633                       # number of overall misses
system.l3.overall_misses::total                287987                       # number of overall misses
system.l3.ReadExReq_miss_latency::cpu.data  18692721500                       # number of ReadExReq miss cycles
system.l3.ReadExReq_miss_latency::total   18692721500                       # number of ReadExReq miss cycles
system.l3.ReadSharedReq_miss_latency::cpu.inst     57885500                       # number of ReadSharedReq miss cycles
system.l3.ReadSharedReq_miss_latency::cpu.data  88313338000                       # number of ReadSharedReq miss cycles
system.l3.ReadSharedReq_miss_latency::total  88371223500                       # number of ReadSharedReq miss cycles
system.l3.demand_miss_latency::cpu.inst      57885500                       # number of demand (read+write) miss cycles
system.l3.demand_miss_latency::cpu.data  107006059500                       # number of demand (read+write) miss cycles
system.l3.demand_miss_latency::total     107063945000                       # number of demand (read+write) miss cycles
system.l3.overall_miss_latency::cpu.inst     57885500                       # number of overall miss cycles
system.l3.overall_miss_latency::cpu.data 107006059500                       # number of overall miss cycles
system.l3.overall_miss_latency::total    107063945000                       # number of overall miss cycles
system.l3.WritebackDirty_accesses::writebacks       508275                       # number of WritebackDirty accesses(hits+misses)
system.l3.WritebackDirty_accesses::total       508275                       # number of WritebackDirty accesses(hits+misses)
system.l3.ReadExReq_accesses::cpu.data          63436                       # number of ReadExReq accesses(hits+misses)
system.l3.ReadExReq_accesses::total             63436                       # number of ReadExReq accesses(hits+misses)
system.l3.ReadSharedReq_accesses::cpu.inst          354                       # number of ReadSharedReq accesses(hits+misses)
system.l3.ReadSharedReq_accesses::cpu.data       454944                       # number of ReadSharedReq accesses(hits+misses)
system.l3.ReadSharedReq_accesses::total        455298                       # number of ReadSharedReq accesses(hits+misses)
system.l3.demand_accesses::cpu.inst               354                       # number of demand (read+write) accesses
system.l3.demand_accesses::cpu.data            518380                       # number of demand (read+write) accesses
system.l3.demand_accesses::total               518734                       # number of demand (read+write) accesses
system.l3.overall_accesses::cpu.inst              354                       # number of overall (read+write) accesses
system.l3.overall_accesses::cpu.data           518380                       # number of overall (read+write) accesses
system.l3.overall_accesses::total              518734                       # number of overall (read+write) accesses
system.l3.ReadExReq_miss_rate::cpu.data      0.989044                       # miss rate for ReadExReq accesses
system.l3.ReadExReq_miss_rate::total         0.989044                       # miss rate for ReadExReq accesses
system.l3.ReadSharedReq_miss_rate::cpu.inst            1                       # miss rate for ReadSharedReq accesses
system.l3.ReadSharedReq_miss_rate::cpu.data     0.494329                       # miss rate for ReadSharedReq accesses
system.l3.ReadSharedReq_miss_rate::total     0.494722                       # miss rate for ReadSharedReq accesses
system.l3.demand_miss_rate::cpu.inst                1                       # miss rate for demand accesses
system.l3.demand_miss_rate::cpu.data         0.554869                       # miss rate for demand accesses
system.l3.demand_miss_rate::total            0.555173                       # miss rate for demand accesses
system.l3.overall_miss_rate::cpu.inst               1                       # miss rate for overall accesses
system.l3.overall_miss_rate::cpu.data        0.554869                       # miss rate for overall accesses
system.l3.overall_miss_rate::total           0.555173                       # miss rate for overall accesses
system.l3.ReadExReq_avg_miss_latency::cpu.data 297934.707767                       # average ReadExReq miss latency
system.l3.ReadExReq_avg_miss_latency::total 297934.707767                       # average ReadExReq miss latency
system.l3.ReadSharedReq_avg_miss_latency::cpu.inst 163518.361582                       # average ReadSharedReq miss latency
system.l3.ReadSharedReq_avg_miss_latency::cpu.data 392692.216708                       # average ReadSharedReq miss latency
system.l3.ReadSharedReq_avg_miss_latency::total 392332.043632                       # average ReadSharedReq miss latency
system.l3.demand_avg_miss_latency::cpu.inst 163518.361582                       # average overall miss latency
system.l3.demand_avg_miss_latency::cpu.data 372022.888542                       # average overall miss latency
system.l3.demand_avg_miss_latency::total 371766.590159                       # average overall miss latency
system.l3.overall_avg_miss_latency::cpu.inst 163518.361582                       # average overall miss latency
system.l3.overall_avg_miss_latency::cpu.data 372022.888542                       # average overall miss latency
system.l3.overall_avg_miss_latency::total 371766.590159                       # average overall miss latency
system.l3.blocked_cycles::no_mshrs                  0                       # number of cycles access was blocked
system.l3.blocked_cycles::no_targets                0                       # number of cycles access was blocked
system.l3.blocked::no_mshrs                         0                       # number of cycles access was blocked
system.l3.blocked::no_targets                       0                       # number of cycles access was blocked
system.l3.avg_blocked_cycles::no_mshrs            nan                       # average number of cycles each access was blocked
system.l3.avg_blocked_cycles::no_targets          nan                       # average number of cycles each access was blocked
system.l3.writebacks::writebacks               264919                       # number of writebacks
system.l3.writebacks::total                    264919                       # number of writebacks
system.l3.CleanEvict_mshr_misses::writebacks            1                       # number of CleanEvict MSHR misses
system.l3.CleanEvict_mshr_misses::total             1                       # number of CleanEvict MSHR misses
system.l3.ReadExReq_mshr_misses::cpu.data        62741                       # number of ReadExReq MSHR misses
system.l3.ReadExReq_mshr_misses::total          62741                       # number of ReadExReq MSHR misses
system.l3.ReadSharedReq_mshr_misses::cpu.inst          354                       # number of ReadSharedReq MSHR misses
system.l3.ReadSharedReq_mshr_misses::cpu.data       224892                       # number of ReadSharedReq MSHR misses
system.l3.ReadSharedReq_mshr_misses::total       225246                       # number of ReadSharedReq MSHR misses
system.l3.demand_mshr_misses::cpu.inst            354                       # number of demand (read+write) MSHR misses
system.l3.demand_mshr_misses::cpu.data         287633                       # number of demand (read+write) MSHR misses
system.l3.demand_mshr_misses::total            287987                       # number of demand (read+write) MSHR misses
system.l3.overall_mshr_misses::cpu.inst           354                       # number of overall MSHR misses
system.l3.overall_mshr_misses::cpu.data        287633                       # number of overall MSHR misses
system.l3.overall_mshr_misses::total           287987                       # number of overall MSHR misses
system.l3.ReadExReq_mshr_miss_latency::cpu.data  17688865500                       # number of ReadExReq MSHR miss cycles
system.l3.ReadExReq_mshr_miss_latency::total  17688865500                       # number of ReadExReq MSHR miss cycles
system.l3.ReadSharedReq_mshr_miss_latency::cpu.inst     52221500                       # number of ReadSharedReq MSHR miss cycles
system.l3.ReadSharedReq_mshr_miss_latency::cpu.data  84715066000                       # number of ReadSharedReq MSHR miss cycles
system.l3.ReadSharedReq_mshr_miss_latency::total  84767287500                       # number of ReadSharedReq MSHR miss cycles
system.l3.demand_mshr_miss_latency::cpu.inst     52221500                       # number of demand (read+write) MSHR miss cycles
system.l3.demand_mshr_miss_latency::cpu.data 102403931500                       # number of demand (read+write) MSHR miss cycles
system.l3.demand_mshr_miss_latency::total 102456153000                       # number of demand (read+write) MSHR miss cycles
system.l3.overall_mshr_miss_latency::cpu.inst     52221500                       # number of overall MSHR miss cycles
system.l3.overall_mshr_miss_latency::cpu.data 102403931500                       # number of overall MSHR miss cycles
system.l3.overall_mshr_miss_latency::total 102456153000                       # number of overall MSHR miss cycles
system.l3.CleanEvict_mshr_miss_rate::writebacks          inf                       # mshr miss rate for CleanEvict accesses
system.l3.CleanEvict_mshr_miss_rate::total          inf                       # mshr miss rate for CleanEvict accesses
system.l3.ReadExReq_mshr_miss_rate::cpu.data     0.989044                       # mshr miss rate for ReadExReq accesses
system.l3.ReadExReq_mshr_miss_rate::total     0.989044                       # mshr miss rate for ReadExReq accesses
system.l3.ReadSharedReq_mshr_miss_rate::cpu.inst            1                       # mshr miss rate for ReadSharedReq accesses
system.l3.ReadSharedReq_mshr_miss_rate::cpu.data     0.494329                       # mshr miss rate for ReadSharedReq accesses
system.l3.ReadSharedReq_mshr_miss_rate::total     0.494722                       # mshr miss rate for ReadSharedReq accesses
system.l3.demand_mshr_miss_rate::cpu.inst            1                       # mshr miss rate for demand accesses
system.l3.demand_mshr_miss_rate::cpu.data     0.554869                       # mshr miss rate for demand accesses
system.l3.demand_mshr_miss_rate::total       0.555173                       # mshr miss rate for demand accesses
system.l3.overall_mshr_miss_rate::cpu.inst            1                       # mshr miss rate for overall accesses
system.l3.overall_mshr_miss_rate::cpu.data     0.554869                       # mshr miss rate for overall accesses
system.l3.overall_mshr_miss_rate::total      0.555173                       # mshr miss rate for overall accesses
system.l3.ReadExReq_avg_mshr_miss_latency::cpu.data 281934.707767                       # average ReadExReq mshr miss latency
system.l3.ReadExReq_avg_mshr_miss_latency::total 281934.707767                       # average ReadExReq mshr miss latency
system.l3.ReadSharedReq_avg_mshr_miss_latency::cpu.inst 147518.361582                       # average ReadSharedReq mshr miss latency
system.l3.ReadSharedReq_avg_mshr_miss_latency::cpu.data 376692.216708                       # average ReadSharedReq mshr miss latency
system.l3.ReadSharedReq_avg_mshr_miss_latency::total 376332.043632                       # average ReadSharedReq mshr miss latency
system.l3.demand_avg_mshr_miss_latency::cpu.inst 147518.361582                       # average overall mshr miss latency
system.l3.demand_avg_mshr_miss_latency::cpu.data 356022.888542                       # average overall mshr miss latency
system.l3.demand_avg_mshr_miss_latency::total 355766.590159                       # average overall mshr miss latency
system.l3.overall_avg_mshr_miss_latency::cpu.inst 147518.361582                       # average overall mshr miss latency
system.l3.overall_avg_mshr_miss_latency::cpu.data 356022.888542                       # average overall mshr miss latency
system.l3.overall_avg_mshr_miss_latency::total 355766.590159                       # average overall mshr miss latency
system.l3.replacements                         271617                       # number of replacements
system.membus.snoop_filter.tot_requests        559338                       # Total number of requests made to the snoop filter.
system.membus.snoop_filter.hit_single_requests       271351                       # Number of requests hitting in the snoop filter with a single holder of the requested data.
system.membus.snoop_filter.hit_multi_requests            0                       # Number of requests hitting in the snoop filter with multiple (>1) holders of the requested data.
system.membus.snoop_filter.tot_snoops               0                       # Total number of snoops made to the snoop filter.
system.membus.snoop_filter.hit_single_snoops            0                       # Number of snoops hitting in the snoop filter with a single holder of the requested data.
system.membus.snoop_filter.hit_multi_snoops            0                       # Number of snoops hitting in the snoop filter with multiple (>1) holders of the requested data.
system.membus.pwrStateResidencyTicks::UNDEFINED 1107014396000                       # Cumulative time (in ticks) in various power states
system.membus.trans_dist::ReadResp             225246                       # Transaction distribution
system.membus.trans_dist::WritebackDirty       264919                       # Transaction distribution
system.membus.trans_dist::CleanEvict             6406                       # Transaction distribution
system.membus.trans_dist::ReadExReq             62741                       # Transaction distribution
system.membus.trans_dist::ReadExResp            62741                       # Transaction distribution
system.membus.trans_dist::ReadSharedReq        225246                       # Transaction distribution
system.membus.pkt_count_system.l3.mem_side::system.mem_ctrls.port       847299                       # Packet count per connected master and slave (bytes)
system.membus.pkt_count_system.l3.mem_side::total       847299                       # Packet count per connected master and slave (bytes)
system.membus.pkt_count::total                 847299                       # Packet count per connected master and slave (bytes)
system.membus.pkt_size_system.l3.mem_side::system.mem_ctrls.port     35385984                       # Cumulative packet size per connected master and slave (bytes)
system.membus.pkt_size_system.l3.mem_side::total     35385984                       # Cumulative packet size per connected master and slave (bytes)
system.membus.pkt_size::total                35385984                       # Cumulative packet size per connected master and slave (bytes)
system.membus.snoops                                0                       # Total snoops (count)
system.membus.snoopTraffic                          0                       # Total snoop traffic (bytes)
system.membus.snoop_fanout::samples            287987                       # Request fanout histogram
system.membus.snoop_fanout::mean                    0                       # Request fanout histogram
system.membus.snoop_fanout::stdev                   0                       # Request fanout histogram
system.membus.snoop_fanout::underflows              0      0.00%      0.00% # Request fanout histogram
system.membus.snoop_fanout::0                  287987    100.00%    100.00% # Request fanout histogram
system.membus.snoop_fanout::1                       0      0.00%    100.00% # Request fanout histogram
system.membus.snoop_fanout::overflows               0      0.00%    100.00% # Request fanout histogram
system.membus.snoop_fanout::min_value               0                       # Request fanout histogram
system.membus.snoop_fanout::max_value               0                       # Request fanout histogram
system.membus.snoop_fanout::total              287987                       # Request fanout histogram
system.membus.reqLayer2.occupancy          1619016500                       # Layer occupancy (ticks)
system.membus.reqLayer2.utilization               0.1                       # Layer utilization (%)
system.membus.respLayer1.occupancy         1439937500                       # Layer occupancy (ticks)
system.membus.respLayer1.utilization              0.1                       # Layer utilization (%)
system.tol2bus.snoop_filter.tot_requests      1577195                       # Total number of requests made to the snoop filter.
system.tol2bus.snoop_filter.hit_single_requests       894234                       # Number of requests hitting in the snoop filter with a single holder of the requested data.
system.tol2bus.snoop_filter.hit_multi_requests            0                       # Number of requests hitting in the snoop filter with multiple (>1) holders of the requested data.
system.tol2bus.snoop_filter.tot_snoops            666                       # Total number of snoops made to the snoop filter.
system.tol2bus.snoop_filter.hit_single_snoops          666                       # Number of snoops hitting in the snoop filter with a single holder of the requested data.
system.tol2bus.snoop_filter.hit_multi_snoops            0                       # Number of snoops hitting in the snoop filter with multiple (>1) holders of the requested data.
system.tol2bus.pwrStateResidencyTicks::UNDEFINED 1107014396000                       # Cumulative time (in ticks) in various power states
system.tol2bus.trans_dist::ReadResp            616450                       # Transaction distribution
system.tol2bus.trans_dist::WritebackDirty      1165935                       # Transaction distribution
system.tol2bus.trans_dist::WritebackClean           50                       # Transaction distribution
system.tol2bus.trans_dist::CleanEvict           33243                       # Transaction distribution
system.tol2bus.trans_dist::UpgradeReq          212089                       # Transaction distribution
system.tol2bus.trans_dist::UpgradeResp         212089                       # Transaction distribution
system.tol2bus.trans_dist::ReadExReq            66511                       # Transaction distribution
system.tol2bus.trans_dist::ReadExResp           66511                       # Transaction distribution
system.tol2bus.trans_dist::ReadCleanReq           354                       # Transaction distribution
system.tol2bus.trans_dist::ReadSharedReq       616096                       # Transaction distribution
system.tol2bus.pkt_count_system.cpu.icache.mem_side::system.l2.cpu_side          758                       # Packet count per connected master and slave (bytes)
system.tol2bus.pkt_count_system.cpu.dcache.mem_side::system.l2.cpu_side      2471487                       # Packet count per connected master and slave (bytes)
system.tol2bus.pkt_count::total               2472245                       # Packet count per connected master and slave (bytes)
system.tol2bus.pkt_size_system.cpu.icache.mem_side::system.l2.cpu_side        25856                       # Cumulative packet size per connected master and slave (bytes)
system.tol2bus.pkt_size_system.cpu.dcache.mem_side::system.l2.cpu_side     85777024                       # Cumulative packet size per connected master and slave (bytes)
system.tol2bus.pkt_size::total               85802880                       # Cumulative packet size per connected master and slave (bytes)
system.tol2bus.snoops                          517083                       # Total snoops (count)
system.tol2bus.snoopTraffic                  32529664                       # Total snoop traffic (bytes)
system.tol2bus.snoop_fanout::samples          1412133                       # Request fanout histogram
system.tol2bus.snoop_fanout::mean            0.000472                       # Request fanout histogram
system.tol2bus.snoop_fanout::stdev           0.021712                       # Request fanout histogram
system.tol2bus.snoop_fanout::underflows             0      0.00%      0.00% # Request fanout histogram
system.tol2bus.snoop_fanout::0                1411467     99.95%     99.95% # Request fanout histogram
system.tol2bus.snoop_fanout::1                    666      0.05%    100.00% # Request fanout histogram
system.tol2bus.snoop_fanout::2                      0      0.00%    100.00% # Request fanout histogram
system.tol2bus.snoop_fanout::3                      0      0.00%    100.00% # Request fanout histogram
system.tol2bus.snoop_fanout::4                      0      0.00%    100.00% # Request fanout histogram
system.tol2bus.snoop_fanout::overflows              0      0.00%    100.00% # Request fanout histogram
system.tol2bus.snoop_fanout::min_value              0                       # Request fanout histogram
system.tol2bus.snoop_fanout::max_value              1                       # Request fanout histogram
system.tol2bus.snoop_fanout::total            1412133                       # Request fanout histogram
system.tol2bus.reqLayer0.occupancy         1446306500                       # Layer occupancy (ticks)
system.tol2bus.reqLayer0.utilization              0.1                       # Layer utilization (%)
system.tol2bus.respLayer0.occupancy            531000                       # Layer occupancy (ticks)
system.tol2bus.respLayer0.utilization             0.0                       # Layer utilization (%)
system.tol2bus.respLayer1.occupancy        1129955000                       # Layer occupancy (ticks)
system.tol2bus.respLayer1.utilization             0.1                       # Layer utilization (%)
system.tol3bus.snoop_filter.tot_requests      1035150                       # Total number of requests made to the snoop filter.
system.tol3bus.snoop_filter.hit_single_requests       516416                       # Number of requests hitting in the snoop filter with a single holder of the requested data.
system.tol3bus.snoop_filter.hit_multi_requests            0                       # Number of requests hitting in the snoop filter with multiple (>1) holders of the requested data.
system.tol3bus.snoop_filter.tot_snoops            293                       # Total number of snoops made to the snoop filter.
system.tol3bus.snoop_filter.hit_single_snoops          293                       # Number of snoops hitting in the snoop filter with a single holder of the requested data.
system.tol3bus.snoop_filter.hit_multi_snoops            0                       # Number of snoops hitting in the snoop filter with multiple (>1) holders of the requested data.
system.tol3bus.pwrStateResidencyTicks::UNDEFINED 1107014396000                       # Cumulative time (in ticks) in various power states
system.tol3bus.trans_dist::ReadResp            455298                       # Transaction distribution
system.tol3bus.trans_dist::WritebackDirty       773194                       # Transaction distribution
system.tol3bus.trans_dist::CleanEvict           14839                       # Transaction distribution
system.tol3bus.trans_dist::ReadExReq            63436                       # Transaction distribution
system.tol3bus.trans_dist::ReadExResp           63436                       # Transaction distribution
system.tol3bus.trans_dist::ReadSharedReq       455298                       # Transaction distribution
system.tol3bus.pkt_count_system.l2.mem_side::system.l3.cpu_side      1553884                       # Packet count per connected master and slave (bytes)
system.tol3bus.pkt_size_system.l2.mem_side::system.l3.cpu_side     65728576                       # Cumulative packet size per connected master and slave (bytes)
system.tol3bus.snoops                          271617                       # Total snoops (count)
system.tol3bus.snoopTraffic                  16954816                       # Total snoop traffic (bytes)
system.tol3bus.snoop_fanout::samples           790351                       # Request fanout histogram
system.tol3bus.snoop_fanout::mean            0.000371                       # Request fanout histogram
system.tol3bus.snoop_fanout::stdev           0.019251                       # Request fanout histogram
system.tol3bus.snoop_fanout::underflows             0      0.00%      0.00% # Request fanout histogram
system.tol3bus.snoop_fanout::0                 790058     99.96%     99.96% # Request fanout histogram
system.tol3bus.snoop_fanout::1                    293      0.04%    100.00% # Request fanout histogram
system.tol3bus.snoop_fanout::overflows              0      0.00%    100.00% # Request fanout histogram
system.tol3bus.snoop_fanout::min_value              0                       # Request fanout histogram
system.tol3bus.snoop_fanout::max_value              1                       # Request fanout histogram
system.tol3bus.snoop_fanout::total             790351                       # Request fanout histogram
system.tol3bus.reqLayer0.occupancy         1025850000                       # Layer occupancy (ticks)
system.tol3bus.reqLayer0.utilization              0.1                       # Layer utilization (%)
system.tol3bus.respLayer0.occupancy         778101000                       # Layer occupancy (ticks)
system.tol3bus.respLayer0.utilization             0.1                       # Layer utilization (%)

---------- End Simulation Statistics   ----------
