
---------- Begin Simulation Statistics ----------
sim_seconds                                  1.112011                       # Number of seconds simulated
sim_ticks                                1112010781000                       # Number of ticks simulated
final_tick                               1112010781000                       # Number of ticks from beginning of simulation (restored from checkpoints and never reset)
sim_freq                                 1000000000000                       # Frequency of simulated ticks
host_inst_rate                                 974861                       # Simulator instruction rate (inst/s)
host_op_rate                                  1580864                       # Simulator op (including micro ops) rate (op/s)
host_tick_rate                             2150524926                       # Simulator tick rate (ticks/s)
host_mem_usage                                 663412                       # Number of bytes of host memory used
host_seconds                                   517.09                       # Real time elapsed on the host
sim_insts                                   504088759                       # Number of instructions simulated
sim_ops                                     817446099                       # Number of ops (including micro ops) simulated
system.voltage_domain.voltage                       1                       # Voltage in Volts
system.clk_domain.clock                          1000                       # Clock period in ticks
system.mem_ctrls.pwrStateResidencyTicks::UNDEFINED 1112010781000                       # Cumulative time (in ticks) in various power states
system.mem_ctrls.bytes_read::cpu.inst           22656                       # Number of bytes read from this memory
system.mem_ctrls.bytes_read::cpu.data        17903936                       # Number of bytes read from this memory
system.mem_ctrls.bytes_read::total           17926592                       # Number of bytes read from this memory
system.mem_ctrls.bytes_inst_read::cpu.inst        22656                       # Number of instructions bytes read from this memory
system.mem_ctrls.bytes_inst_read::total         22656                       # Number of instructions bytes read from this memory
system.mem_ctrls.bytes_written::writebacks     16446208                       # Number of bytes written to this memory
system.mem_ctrls.bytes_written::total        16446208                       # Number of bytes written to this memory
system.mem_ctrls.num_reads::cpu.inst              354                       # Number of read requests responded to by this memory
system.mem_ctrls.num_reads::cpu.data           279749                       # Number of read requests responded to by this memory
system.mem_ctrls.num_reads::total              280103                       # Number of read requests responded to by this memory
system.mem_ctrls.num_writes::writebacks        256972                       # Number of write requests responded to by this memory
system.mem_ctrls.num_writes::total             256972                       # Number of write requests responded to by this memory
system.mem_ctrls.bw_read::cpu.inst              20374                       # Total read bandwidth from this memory (bytes/s)
system.mem_ctrls.bw_read::cpu.data           16100506                       # Total read bandwidth from this memory (bytes/s)
system.mem_ctrls.bw_read::total              16120880                       # Total read bandwidth from this memory (bytes/s)
system.mem_ctrls.bw_inst_read::cpu.inst         20374                       # Instruction read bandwidth from this memory (bytes/s)
system.mem_ctrls.bw_inst_read::total            20374                       # Instruction read bandwidth from this memory (bytes/s)
system.mem_ctrls.bw_write::writebacks        14789612                       # Write bandwidth from this memory (bytes/s)
system.mem_ctrls.bw_write::total             14789612                       # Write bandwidth from this memory (bytes/s)
system.mem_ctrls.bw_total::writebacks        14789612                       # Total bandwidth to/from this memory (bytes/s)
system.mem_ctrls.bw_total::cpu.inst             20374                       # Total bandwidth to/from this memory (bytes/s)
system.mem_ctrls.bw_total::cpu.data          16100506                       # Total bandwidth to/from this memory (bytes/s)
system.mem_ctrls.bw_total::total             30910492                       # Total bandwidth to/from this memory (bytes/s)
system.pwrStateResidencyTicks::UNDEFINED 1112010781000                       # Cumulative time (in ticks) in various power states
system.cpu_voltage_domain.voltage                   1                       # Voltage in Volts
system.cpu_clk_domain.clock                       500                       # Clock period in ticks
system.cpu.dtb.walker.pwrStateResidencyTicks::UNDEFINED 1112010781000                       # Cumulative time (in ticks) in various power states
system.cpu.dtb.rdAccesses                   238245979                       # TLB accesses on read requests
system.cpu.dtb.wrAccesses                    64374651                       # TLB accesses on write requests
system.cpu.dtb.rdMisses                          5921                       # TLB misses on read requests
system.cpu.dtb.wrMisses                           999                       # TLB misses on write requests
system.cpu.apic_clk_domain.clock                 8000                       # Clock period in ticks
system.cpu.interrupts.pwrStateResidencyTicks::UNDEFINED 1112010781000                       # Cumulative time (in ticks) in various power states
system.cpu.itb.walker.pwrStateResidencyTicks::UNDEFINED 1112010781000                       # Cumulative time (in ticks) in various power states
system.cpu.itb.rdAccesses                           0                       # TLB accesses on read requests
system.cpu.itb.wrAccesses                   677335189                       # TLB accesses on write requests
system.cpu.itb.rdMisses                             0                       # TLB misses on read requests
system.cpu.itb.wrMisses                            36                       # TLB misses on write requests
system.cpu.workload.numSyscalls                     9                       # Number of system calls
system.cpu.pwrStateResidencyTicks::ON    1112010781000                       # Cumulative time (in ticks) in various power states
system.cpu.numCycles                       2224021562                       # number of cpu cycles simulated
system.cpu.numWorkItemsStarted                      0                       # number of work items this cpu started
system.cpu.numWorkItemsCompleted                    0                       # number of work items this cpu completed
system.cpu.committedInsts                   504088759                       # Number of instructions committed
system.cpu.committedOps                     817446099                       # Number of ops (including micro ops) committed
system.cpu.num_int_alu_accesses             812629980                       # Number of integer alu accesses
system.cpu.num_fp_alu_accesses                   1951                       # Number of float alu accesses
system.cpu.num_vec_alu_accesses                     0                       # Number of vector alu accesses
system.cpu.num_func_calls                     9452832                       # number of times a function call or return occured
system.cpu.num_conditional_control_insts     46565889                       # number of instructions that are conditional controls
system.cpu.num_int_insts                    812629980                       # number of integer instructions
system.cpu.num_fp_insts                          1951                       # number of float instructions
system.cpu.num_vec_insts                            0                       # number of vector instructions
system.cpu.num_int_register_reads          1822855569                       # number of times the integer registers were read
system.cpu.num_int_register_writes          705741303                       # number of times the integer registers were written
system.cpu.num_fp_register_reads                 3771                       # number of times the floating registers were read
system.cpu.num_fp_register_writes                1484                       # number of times the floating registers were written
system.cpu.num_vec_register_reads                   0                       # number of times the vector registers were read
system.cpu.num_vec_register_writes                  0                       # number of times the vector registers were written
system.cpu.num_cc_register_reads            297557770                       # number of times the CC registers were read
system.cpu.num_cc_register_writes           279904584                       # number of times the CC registers were written
system.cpu.num_mem_refs                     302620628                       # number of memory refs
system.cpu.num_load_insts                   238245978                       # Number of load instructions
system.cpu.num_store_insts                   64374650                       # Number of store instructions
system.cpu.num_idle_cycles                          0                       # Number of idle cycles
system.cpu.num_busy_cycles                 2224021562                       # Number of busy cycles
system.cpu.not_idle_fraction                        1                       # Percentage of non-idle cycles
system.cpu.idle_fraction                            0                       # Percentage of idle cycles
system.cpu.Branches                          60772145                       # Number of branches fetched
system.cpu.op_class::No_OpClass               1362109      0.17%      0.17% # Class of executed instruction
system.cpu.op_class::IntAlu                 505014352     61.78%     61.95% # Class of executed instruction
system.cpu.op_class::IntMult                        4      0.00%     61.95% # Class of executed instruction
system.cpu.op_class::IntDiv                   8448046      1.03%     62.98% # Class of executed instruction
system.cpu.op_class::FloatAdd                      10      0.00%     62.98% # Class of executed instruction
system.cpu.op_class::FloatCmp                       0      0.00%     62.98% # Class of executed instruction
system.cpu.op_class::FloatCvt                       0      0.00%     62.98% # Class of executed instruction
system.cpu.op_class::FloatMult                      0      0.00%     62.98% # Class of executed instruction
system.cpu.op_class::FloatMultAcc                   0      0.00%     62.98% # Class of executed instruction
system.cpu.op_class::FloatDiv                       0      0.00%     62.98% # Class of executed instruction
system.cpu.op_class::FloatMisc                      0      0.00%     62.98% # Class of executed instruction
system.cpu.op_class::FloatSqrt                      0      0.00%     62.98% # Class of executed instruction
system.cpu.op_class::SimdAdd                      374      0.00%     62.98% # Class of executed instruction
system.cpu.op_class::SimdAddAcc                     0      0.00%     62.98% # Class of executed instruction
system.cpu.op_class::SimdAlu                       68      0.00%     62.98% # Class of executed instruction
system.cpu.op_class::SimdCmp                        0      0.00%     62.98% # Class of executed instruction
system.cpu.op_class::SimdCvt                      108      0.00%     62.98% # Class of executed instruction
system.cpu.op_class::SimdMisc                     214      0.00%     62.98% # Class of executed instruction
system.cpu.op_class::SimdMult                       0      0.00%     62.98% # Class of executed instruction
system.cpu.op_class::SimdMultAcc                    0      0.00%     62.98% # Class of executed instruction
system.cpu.op_class::SimdShift                    186      0.00%     62.98% # Class of executed instruction
system.cpu.op_class::SimdShiftAcc                   0      0.00%     62.98% # Class of executed instruction
system.cpu.op_class::SimdSqrt                       0      0.00%     62.98% # Class of executed instruction
system.cpu.op_class::SimdFloatAdd                   0      0.00%     62.98% # Class of executed instruction
system.cpu.op_class::SimdFloatAlu                   0      0.00%     62.98% # Class of executed instruction
system.cpu.op_class::SimdFloatCmp                   0      0.00%     62.98% # Class of executed instruction
system.cpu.op_class::SimdFloatCvt                   0      0.00%     62.98% # Class of executed instruction
system.cpu.op_class::SimdFloatDiv                   0      0.00%     62.98% # Class of executed instruction
system.cpu.op_class::SimdFloatMisc                  0      0.00%     62.98% # Class of executed instruction
system.cpu.op_class::SimdFloatMult                  0      0.00%     62.98% # Class of executed instruction
system.cpu.op_class::SimdFloatMultAcc               0      0.00%     62.98% # Class of executed instruction
system.cpu.op_class::SimdFloatSqrt                  0      0.00%     62.98% # Class of executed instruction
system.cpu.op_class::MemRead                238245918     29.15%     92.12% # Class of executed instruction
system.cpu.op_class::MemWrite                64374231      7.88%    100.00% # Class of executed instruction
system.cpu.op_class::FloatMemRead                  60      0.00%    100.00% # Class of executed instruction
system.cpu.op_class::FloatMemWrite                419      0.00%    100.00% # Class of executed instruction
system.cpu.op_class::IprAccess                      0      0.00%    100.00% # Class of executed instruction
system.cpu.op_class::InstPrefetch                   0      0.00%    100.00% # Class of executed instruction
system.cpu.op_class::total                  817446099                       # Class of executed instruction
system.cpu.dcache.tags.pwrStateResidencyTicks::UNDEFINED 1112010781000                       # Cumulative time (in ticks) in various power states
system.cpu.dcache.tags.tagsinuse           511.824163                       # Cycle average of tags in use
system.cpu.dcache.tags.total_refs           302620630                       # Total number of references to valid blocks.
system.cpu.dcache.tags.sampled_refs            682607                       # Sample count of references to valid blocks.
system.cpu.dcache.tags.avg_refs            443.330687                       # Average number of references to valid blocks.
system.cpu.dcache.tags.warmup_cycle            765000                       # Cycle when the warmup percentage was hit.
system.cpu.dcache.tags.occ_blocks::cpu.data   511.824163                       # Average occupied blocks per requestor
system.cpu.dcache.tags.occ_percent::cpu.data     0.999657                       # Average percentage of cache occupancy
system.cpu.dcache.tags.occ_percent::total     0.999657                       # Average percentage of cache occupancy
system.cpu.dcache.tags.occ_task_id_blocks::1024          512                       # Occupied blocks per task id
system.cpu.dcache.tags.age_task_id_blocks_1024::0           11                       # Occupied blocks per task id
system.cpu.dcache.tags.age_task_id_blocks_1024::1           18                       # Occupied blocks per task id
system.cpu.dcache.tags.age_task_id_blocks_1024::2           54                       # Occupied blocks per task id
system.cpu.dcache.tags.age_task_id_blocks_1024::3          422                       # Occupied blocks per task id
system.cpu.dcache.tags.age_task_id_blocks_1024::4            7                       # Occupied blocks per task id
system.cpu.dcache.tags.occ_task_id_percent::1024            1                       # Percentage of cache occupancy per task id
system.cpu.dcache.tags.tag_accesses         605923867                       # Number of tag accesses
system.cpu.dcache.tags.data_accesses        605923867                       # Number of data accesses
system.cpu.dcache.pwrStateResidencyTicks::UNDEFINED 1112010781000                       # Cumulative time (in ticks) in various power states
system.cpu.dcache.ReadReq_hits::cpu.data    237629883                       # number of ReadReq hits
system.cpu.dcache.ReadReq_hits::total       237629883                       # number of ReadReq hits
system.cpu.dcache.WriteReq_hits::cpu.data     64088073                       # number of WriteReq hits
system.cpu.dcache.WriteReq_hits::total       64088073                       # number of WriteReq hits
system.cpu.dcache.demand_hits::cpu.data     301717956                       # number of demand (read+write) hits
system.cpu.dcache.demand_hits::total        301717956                       # number of demand (read+write) hits
system.cpu.dcache.overall_hits::cpu.data    301717956                       # number of overall hits
system.cpu.dcache.overall_hits::total       301717956                       # number of overall hits
system.cpu.dcache.ReadReq_misses::cpu.data       616096                       # number of ReadReq misses
system.cpu.dcache.ReadReq_misses::total        616096                       # number of ReadReq misses
system.cpu.dcache.WriteReq_misses::cpu.data       286578                       # number of WriteReq misses
system.cpu.dcache.WriteReq_misses::total       286578                       # number of WriteReq misses
system.cpu.dcache.demand_misses::cpu.data       902674                       # number of demand (read+write) misses
system.cpu.dcache.demand_misses::total         902674                       # number of demand (read+write) misses
system.cpu.dcache.overall_misses::cpu.data       902674                       # number of overall misses
system.cpu.dcache.overall_misses::total        902674                       # number of overall misses
system.cpu.dcache.ReadReq_miss_latency::cpu.data 109722821000                       # number of ReadReq miss cycles
system.cpu.dcache.ReadReq_miss_latency::total 109722821000                       # number of ReadReq miss cycles
system.cpu.dcache.WriteReq_miss_latency::cpu.data  23173621500                       # number of WriteReq miss cycles
system.cpu.dcache.WriteReq_miss_latency::total  23173621500                       # number of WriteReq miss cycles
system.cpu.dcache.demand_miss_latency::cpu.data 132896442500                       # number of demand (read+write) miss cycles
system.cpu.dcache.demand_miss_latency::total 132896442500                       # number of demand (read+write) miss cycles
system.cpu.dcache.overall_miss_latency::cpu.data 132896442500                       # number of overall miss cycles
system.cpu.dcache.overall_miss_latency::total 132896442500                       # number of overall miss cycles
system.cpu.dcache.ReadReq_accesses::cpu.data    238245979                       # number of ReadReq accesses(hits+misses)
system.cpu.dcache.ReadReq_accesses::total    238245979                       # number of ReadReq accesses(hits+misses)
system.cpu.dcache.WriteReq_accesses::cpu.data     64374651                       # number of WriteReq accesses(hits+misses)
system.cpu.dcache.WriteReq_accesses::total     64374651                       # number of WriteReq accesses(hits+misses)
system.cpu.dcache.demand_accesses::cpu.data    302620630                       # number of demand (read+write) accesses
system.cpu.dcache.demand_accesses::total    302620630                       # number of demand (read+write) accesses
system.cpu.dcache.overall_accesses::cpu.data    302620630                       # number of overall (read+write) accesses
system.cpu.dcache.overall_accesses::total    302620630                       # number of overall (read+write) accesses
system.cpu.dcache.ReadReq_miss_rate::cpu.data     0.002586                       # miss rate for ReadReq accesses
system.cpu.dcache.ReadReq_miss_rate::total     0.002586                       # miss rate for ReadReq accesses
system.cpu.dcache.WriteReq_miss_rate::cpu.data     0.004452                       # miss rate for WriteReq accesses
system.cpu.dcache.WriteReq_miss_rate::total     0.004452                       # miss rate for WriteReq accesses
system.cpu.dcache.demand_miss_rate::cpu.data     0.002983                       # miss rate for demand accesses
system.cpu.dcache.demand_miss_rate::total     0.002983                       # miss rate for demand accesses
system.cpu.dcache.overall_miss_rate::cpu.data     0.002983                       # miss rate for overall accesses
system.cpu.dcache.overall_miss_rate::total     0.002983                       # miss rate for overall accesses
system.cpu.dcache.ReadReq_avg_miss_latency::cpu.data 178093.707799                       # average ReadReq miss latency
system.cpu.dcache.ReadReq_avg_miss_latency::total 178093.707799                       # average ReadReq miss latency
system.cpu.dcache.WriteReq_avg_miss_latency::cpu.data 80863.225719                       # average WriteReq miss latency
system.cpu.dcache.WriteReq_avg_miss_latency::total 80863.225719                       # average WriteReq miss latency
system.cpu.dcache.demand_avg_miss_latency::cpu.data 147225.291190                       # average overall miss latency
system.cpu.dcache.demand_avg_miss_latency::total 147225.291190                       # average overall miss latency
system.cpu.dcache.overall_avg_miss_latency::cpu.data 147225.291190                       # average overall miss latency
system.cpu.dcache.overall_avg_miss_latency::total 147225.291190                       # average overall miss latency
system.cpu.dcache.blocked_cycles::no_mshrs            0                       # number of cycles access was blocked
system.cpu.dcache.blocked_cycles::no_targets            0                       # number of cycles access was blocked
system.cpu.dcache.blocked::no_mshrs                 0                       # number of cycles access was blocked
system.cpu.dcache.blocked::no_targets               0                       # number of cycles access was blocked
system.cpu.dcache.avg_blocked_cycles::no_mshrs          nan                       # average number of cycles each access was blocked
system.cpu.dcache.avg_blocked_cycles::no_targets          nan                       # average number of cycles each access was blocked
system.cpu.dcache.writebacks::writebacks       657659                       # number of writebacks
system.cpu.dcache.writebacks::total            657659                       # number of writebacks
system.cpu.dcache.ReadReq_mshr_misses::cpu.data       616096                       # number of ReadReq MSHR misses
system.cpu.dcache.ReadReq_mshr_misses::total       616096                       # number of ReadReq MSHR misses
system.cpu.dcache.WriteReq_mshr_misses::cpu.data       286578                       # number of WriteReq MSHR misses
system.cpu.dcache.WriteReq_mshr_misses::total       286578                       # number of WriteReq MSHR misses
system.cpu.dcache.demand_mshr_misses::cpu.data       902674                       # number of demand (read+write) MSHR misses
system.cpu.dcache.demand_mshr_misses::total       902674                       # number of demand (read+write) MSHR misses
system.cpu.dcache.overall_mshr_misses::cpu.data       902674                       # number of overall MSHR misses
system.cpu.dcache.overall_mshr_misses::total       902674                       # number of overall MSHR misses
system.cpu.dcache.ReadReq_mshr_miss_latency::cpu.data 109106725000                       # number of ReadReq MSHR miss cycles
system.cpu.dcache.ReadReq_mshr_miss_latency::total 109106725000                       # number of ReadReq MSHR miss cycles
system.cpu.dcache.WriteReq_mshr_miss_latency::cpu.data  22887043500                       # number of WriteReq MSHR miss cycles
system.cpu.dcache.WriteReq_mshr_miss_latency::total  22887043500                       # number of WriteReq MSHR miss cycles
system.cpu.dcache.demand_mshr_miss_latency::cpu.data 131993768500                       # number of demand (read+write) MSHR miss cycles
system.cpu.dcache.demand_mshr_miss_latency::total 131993768500                       # number of demand (read+write) MSHR miss cycles
system.cpu.dcache.overall_mshr_miss_latency::cpu.data 131993768500                       # number of overall MSHR miss cycles
system.cpu.dcache.overall_mshr_miss_latency::total 131993768500                       # number of overall MSHR miss cycles
system.cpu.dcache.ReadReq_mshr_miss_rate::cpu.data     0.002586                       # mshr miss rate for ReadReq accesses
system.cpu.dcache.ReadReq_mshr_miss_rate::total     0.002586                       # mshr miss rate for ReadReq accesses
system.cpu.dcache.WriteReq_mshr_miss_rate::cpu.data     0.004452                       # mshr miss rate for WriteReq accesses
system.cpu.dcache.WriteReq_mshr_miss_rate::total     0.004452                       # mshr miss rate for WriteReq accesses
system.cpu.dcache.demand_mshr_miss_rate::cpu.data     0.002983                       # mshr miss rate for demand accesses
system.cpu.dcache.demand_mshr_miss_rate::total     0.002983                       # mshr miss rate for demand accesses
system.cpu.dcache.overall_mshr_miss_rate::cpu.data     0.002983                       # mshr miss rate for overall accesses
system.cpu.dcache.overall_mshr_miss_rate::total     0.002983                       # mshr miss rate for overall accesses
system.cpu.dcache.ReadReq_avg_mshr_miss_latency::cpu.data 177093.707799                       # average ReadReq mshr miss latency
system.cpu.dcache.ReadReq_avg_mshr_miss_latency::total 177093.707799                       # average ReadReq mshr miss latency
system.cpu.dcache.WriteReq_avg_mshr_miss_latency::cpu.data 79863.225719                       # average WriteReq mshr miss latency
system.cpu.dcache.WriteReq_avg_mshr_miss_latency::total 79863.225719                       # average WriteReq mshr miss latency
system.cpu.dcache.demand_avg_mshr_miss_latency::cpu.data 146225.291190                       # average overall mshr miss latency
system.cpu.dcache.demand_avg_mshr_miss_latency::total 146225.291190                       # average overall mshr miss latency
system.cpu.dcache.overall_avg_mshr_miss_latency::cpu.data 146225.291190                       # average overall mshr miss latency
system.cpu.dcache.overall_avg_mshr_miss_latency::total 146225.291190                       # average overall mshr miss latency
system.cpu.dcache.replacements                 682095                       # number of replacements
system.cpu.dtb_walker_cache.tags.pwrStateResidencyTicks::UNDEFINED 1112010781000                       # Cumulative time (in ticks) in various power states
system.cpu.dtb_walker_cache.tags.tagsinuse            0                       # Cycle average of tags in use
system.cpu.dtb_walker_cache.tags.total_refs            0                       # Total number of references to valid blocks.
system.cpu.dtb_walker_cache.tags.sampled_refs            0                       # Sample count of references to valid blocks.
system.cpu.dtb_walker_cache.tags.avg_refs          nan                       # Average number of references to valid blocks.
system.cpu.dtb_walker_cache.tags.warmup_cycle            0                       # Cycle when the warmup percentage was hit.
system.cpu.dtb_walker_cache.tags.tag_accesses            0                       # Number of tag accesses
system.cpu.dtb_walker_cache.tags.data_accesses            0                       # Number of data accesses
system.cpu.dtb_walker_cache.pwrStateResidencyTicks::UNDEFINED 1112010781000                       # Cumulative time (in ticks) in various power states
system.cpu.dtb_walker_cache.blocked_cycles::no_mshrs            0                       # number of cycles access was blocked
system.cpu.dtb_walker_cache.blocked_cycles::no_targets            0                       # number of cycles access was blocked
system.cpu.dtb_walker_cache.blocked::no_mshrs            0                       # number of cycles access was blocked
system.cpu.dtb_walker_cache.blocked::no_targets            0                       # number of cycles access was blocked
system.cpu.dtb_walker_cache.avg_blocked_cycles::no_mshrs          nan                       # average number of cycles each access was blocked
system.cpu.dtb_walker_cache.avg_blocked_cycles::no_targets          nan                       # average number of cycles each access was blocked
system.cpu.dtb_walker_cache.replacements            0                       # number of replacements
system.cpu.icache.tags.pwrStateResidencyTicks::UNDEFINED 1112010781000                       # Cumulative time (in ticks) in various power states
system.cpu.icache.tags.tagsinuse           277.477651                       # Cycle average of tags in use
system.cpu.icache.tags.total_refs           677335189                       # Total number of references to valid blocks.
system.cpu.icache.tags.sampled_refs               354                       # Sample count of references to valid blocks.
system.cpu.icache.tags.avg_refs          1913376.240113                       # Average number of references to valid blocks.
system.cpu.icache.tags.warmup_cycle            445000                       # Cycle when the warmup percentage was hit.
system.cpu.icache.tags.occ_blocks::cpu.inst   277.477651                       # Average occupied blocks per requestor
system.cpu.icache.tags.occ_percent::cpu.inst     0.541949                       # Average percentage of cache occupancy
system.cpu.icache.tags.occ_percent::total     0.541949                       # Average percentage of cache occupancy
system.cpu.icache.tags.occ_task_id_blocks::1024          304                       # Occupied blocks per task id
system.cpu.icache.tags.age_task_id_blocks_1024::0           17                       # Occupied blocks per task id
system.cpu.icache.tags.age_task_id_blocks_1024::1           18                       # Occupied blocks per task id
system.cpu.icache.tags.age_task_id_blocks_1024::4          269                       # Occupied blocks per task id
system.cpu.icache.tags.occ_task_id_percent::1024     0.593750                       # Percentage of cache occupancy per task id
system.cpu.icache.tags.tag_accesses        1354670732                       # Number of tag accesses
system.cpu.icache.tags.data_accesses       1354670732                       # Number of data accesses
system.cpu.icache.pwrStateResidencyTicks::UNDEFINED 1112010781000                       # Cumulative time (in ticks) in various power states
system.cpu.icache.ReadReq_hits::cpu.inst    677334835                       # number of ReadReq hits
system.cpu.icache.ReadReq_hits::total       677334835                       # number of ReadReq hits
system.cpu.icache.demand_hits::cpu.inst     677334835                       # number of demand (read+write) hits
system.cpu.icache.demand_hits::total        677334835                       # number of demand (read+write) hits
system.cpu.icache.overall_hits::cpu.inst    677334835                       # number of overall hits
system.cpu.icache.overall_hits::total       677334835                       # number of overall hits
system.cpu.icache.ReadReq_misses::cpu.inst          354                       # number of ReadReq misses
system.cpu.icache.ReadReq_misses::total           354                       # number of ReadReq misses
system.cpu.icache.demand_misses::cpu.inst          354                       # number of demand (read+write) misses
system.cpu.icache.demand_misses::total            354                       # number of demand (read+write) misses
system.cpu.icache.overall_misses::cpu.inst          354                       # number of overall misses
system.cpu.icache.overall_misses::total           354                       # number of overall misses
system.cpu.icache.ReadReq_miss_latency::cpu.inst     61550000                       # number of ReadReq miss cycles
system.cpu.icache.ReadReq_miss_latency::total     61550000                       # number of ReadReq miss cycles
system.cpu.icache.demand_miss_latency::cpu.inst     61550000                       # number of demand (read+write) miss cycles
system.cpu.icache.demand_miss_latency::total     61550000                       # number of demand (read+write) miss cycles
system.cpu.icache.overall_miss_latency::cpu.inst     61550000                       # number of overall miss cycles
system.cpu.icache.overall_miss_latency::total     61550000                       # number of overall miss cycles
system.cpu.icache.ReadReq_accesses::cpu.inst    677335189                       # number of ReadReq accesses(hits+misses)
system.cpu.icache.ReadReq_accesses::total    677335189                       # number of ReadReq accesses(hits+misses)
system.cpu.icache.demand_accesses::cpu.inst    677335189                       # number of demand (read+write) accesses
system.cpu.icache.demand_accesses::total    677335189                       # number of demand (read+write) accesses
system.cpu.icache.overall_accesses::cpu.inst    677335189                       # number of overall (read+write) accesses
system.cpu.icache.overall_accesses::total    677335189                       # number of overall (read+write) accesses
system.cpu.icache.ReadReq_miss_rate::cpu.inst     0.000001                       # miss rate for ReadReq accesses
system.cpu.icache.ReadReq_miss_rate::total     0.000001                       # miss rate for ReadReq accesses
system.cpu.icache.demand_miss_rate::cpu.inst     0.000001                       # miss rate for demand accesses
system.cpu.icache.demand_miss_rate::total     0.000001                       # miss rate for demand accesses
system.cpu.icache.overall_miss_rate::cpu.inst     0.000001                       # miss rate for overall accesses
system.cpu.icache.overall_miss_rate::total     0.000001                       # miss rate for overall accesses
system.cpu.icache.ReadReq_avg_miss_latency::cpu.inst 173870.056497                       # average ReadReq miss latency
system.cpu.icache.ReadReq_avg_miss_latency::total 173870.056497                       # average ReadReq miss latency
system.cpu.icache.demand_avg_miss_latency::cpu.inst 173870.056497                       # average overall miss latency
system.cpu.icache.demand_avg_miss_latency::total 173870.056497                       # average overall miss latency
system.cpu.icache.overall_avg_miss_latency::cpu.inst 173870.056497                       # average overall miss latency
system.cpu.icache.overall_avg_miss_latency::total 173870.056497                       # average overall miss latency
system.cpu.icache.blocked_cycles::no_mshrs            0                       # number of cycles access was blocked
system.cpu.icache.blocked_cycles::no_targets            0                       # number of cycles access was blocked
system.cpu.icache.blocked::no_mshrs                 0                       # number of cycles access was blocked
system.cpu.icache.blocked::no_targets               0                       # number of cycles access was blocked
system.cpu.icache.avg_blocked_cycles::no_mshrs          nan                       # average number of cycles each access was blocked
system.cpu.icache.avg_blocked_cycles::no_targets          nan                       # average number of cycles each access was blocked
system.cpu.icache.writebacks::writebacks           50                       # number of writebacks
system.cpu.icache.writebacks::total                50                       # number of writebacks
system.cpu.icache.ReadReq_mshr_misses::cpu.inst          354                       # number of ReadReq MSHR misses
system.cpu.icache.ReadReq_mshr_misses::total          354                       # number of ReadReq MSHR misses
system.cpu.icache.demand_mshr_misses::cpu.inst          354                       # number of demand (read+write) MSHR misses
system.cpu.icache.demand_mshr_misses::total          354                       # number of demand (read+write) MSHR misses
system.cpu.icache.overall_mshr_misses::cpu.inst          354                       # number of overall MSHR misses
system.cpu.icache.overall_mshr_misses::total          354                       # number of overall MSHR misses
system.cpu.icache.ReadReq_mshr_miss_latency::cpu.inst     61196000                       # number of ReadReq MSHR miss cycles
system.cpu.icache.ReadReq_mshr_miss_latency::total     61196000                       # number of ReadReq MSHR miss cycles
system.cpu.icache.demand_mshr_miss_latency::cpu.inst     61196000                       # number of demand (read+write) MSHR miss cycles
system.cpu.icache.demand_mshr_miss_latency::total     61196000                       # number of demand (read+write) MSHR miss cycles
system.cpu.icache.overall_mshr_miss_latency::cpu.inst     61196000                       # number of overall MSHR miss cycles
system.cpu.icache.overall_mshr_miss_latency::total     61196000                       # number of overall MSHR miss cycles
system.cpu.icache.ReadReq_mshr_miss_rate::cpu.inst     0.000001                       # mshr miss rate for ReadReq accesses
system.cpu.icache.ReadReq_mshr_miss_rate::total     0.000001                       # mshr miss rate for ReadReq accesses
system.cpu.icache.demand_mshr_miss_rate::cpu.inst     0.000001                       # mshr miss rate for demand accesses
system.cpu.icache.demand_mshr_miss_rate::total     0.000001                       # mshr miss rate for demand accesses
system.cpu.icache.overall_mshr_miss_rate::cpu.inst     0.000001                       # mshr miss rate for overall accesses
system.cpu.icache.overall_mshr_miss_rate::total     0.000001                       # mshr miss rate for overall accesses
system.cpu.icache.ReadReq_avg_mshr_miss_latency::cpu.inst 172870.056497                       # average ReadReq mshr miss latency
system.cpu.icache.ReadReq_avg_mshr_miss_latency::total 172870.056497                       # average ReadReq mshr miss latency
system.cpu.icache.demand_avg_mshr_miss_latency::cpu.inst 172870.056497                       # average overall mshr miss latency
system.cpu.icache.demand_avg_mshr_miss_latency::total 172870.056497                       # average overall mshr miss latency
system.cpu.icache.overall_avg_mshr_miss_latency::cpu.inst 172870.056497                       # average overall mshr miss latency
system.cpu.icache.overall_avg_mshr_miss_latency::total 172870.056497                       # average overall mshr miss latency
system.cpu.icache.replacements                     50                       # number of replacements
system.cpu.itb_walker_cache.tags.pwrStateResidencyTicks::UNDEFINED 1112010781000                       # Cumulative time (in ticks) in various power states
system.cpu.itb_walker_cache.tags.tagsinuse            0                       # Cycle average of tags in use
system.cpu.itb_walker_cache.tags.total_refs            0                       # Total number of references to valid blocks.
system.cpu.itb_walker_cache.tags.sampled_refs            0                       # Sample count of references to valid blocks.
system.cpu.itb_walker_cache.tags.avg_refs          nan                       # Average number of references to valid blocks.
system.cpu.itb_walker_cache.tags.warmup_cycle            0                       # Cycle when the warmup percentage was hit.
system.cpu.itb_walker_cache.tags.tag_accesses            0                       # Number of tag accesses
system.cpu.itb_walker_cache.tags.data_accesses            0                       # Number of data accesses
system.cpu.itb_walker_cache.pwrStateResidencyTicks::UNDEFINED 1112010781000                       # Cumulative time (in ticks) in various power states
system.cpu.itb_walker_cache.blocked_cycles::no_mshrs            0                       # number of cycles access was blocked
system.cpu.itb_walker_cache.blocked_cycles::no_targets            0                       # number of cycles access was blocked
system.cpu.itb_walker_cache.blocked::no_mshrs            0                       # number of cycles access was blocked
system.cpu.itb_walker_cache.blocked::no_targets            0                       # number of cycles access was blocked
system.cpu.itb_walker_cache.avg_blocked_cycles::no_mshrs          nan                       # average number of cycles each access was blocked
system.cpu.itb_walker_cache.avg_blocked_cycles::no_targets          nan                       # average number of cycles each access was blocked
system.cpu.itb_walker_cache.replacements            0                       # number of replacements
system.l2.tags.pwrStateResidencyTicks::UNDEFINED 1112010781000                       # Cumulative time (in ticks) in various power states
system.l2.tags.tagsinuse                  2045.613077                       # Cycle average of tags in use
system.l2.tags.total_refs                     1585173                       # Total number of references to valid blocks.
system.l2.tags.sampled_refs                    518838                       # Sample count of references to valid blocks.
system.l2.tags.avg_refs                      3.055237                       # Average number of references to valid blocks.
system.l2.tags.warmup_cycle                    434500                       # Cycle when the warmup percentage was hit.
system.l2.tags.occ_blocks::writebacks        1.014441                       # Average occupied blocks per requestor
system.l2.tags.occ_blocks::cpu.inst          0.930487                       # Average occupied blocks per requestor
system.l2.tags.occ_blocks::cpu.data       2043.668149                       # Average occupied blocks per requestor
system.l2.tags.occ_percent::writebacks       0.000495                       # Average percentage of cache occupancy
system.l2.tags.occ_percent::cpu.inst         0.000454                       # Average percentage of cache occupancy
system.l2.tags.occ_percent::cpu.data         0.997885                       # Average percentage of cache occupancy
system.l2.tags.occ_percent::total            0.998835                       # Average percentage of cache occupancy
system.l2.tags.occ_task_id_blocks::1024          2048                       # Occupied blocks per task id
system.l2.tags.age_task_id_blocks_1024::0           34                       # Occupied blocks per task id
system.l2.tags.age_task_id_blocks_1024::1           38                       # Occupied blocks per task id
system.l2.tags.age_task_id_blocks_1024::3          450                       # Occupied blocks per task id
system.l2.tags.age_task_id_blocks_1024::4         1526                       # Occupied blocks per task id
system.l2.tags.occ_task_id_percent::1024            1                       # Percentage of cache occupancy per task id
system.l2.tags.tag_accesses                  13200222                       # Number of tag accesses
system.l2.tags.data_accesses                 13200222                       # Number of data accesses
system.l2.pwrStateResidencyTicks::UNDEFINED 1112010781000                       # Cumulative time (in ticks) in various power states
system.l2.WritebackDirty_hits::writebacks       657659                       # number of WritebackDirty hits
system.l2.WritebackDirty_hits::total           657659                       # number of WritebackDirty hits
system.l2.WritebackClean_hits::writebacks           50                       # number of WritebackClean hits
system.l2.WritebackClean_hits::total               50                       # number of WritebackClean hits
system.l2.UpgradeReq_hits::cpu.data            220067                       # number of UpgradeReq hits
system.l2.UpgradeReq_hits::total               220067                       # number of UpgradeReq hits
system.l2.ReadExReq_hits::cpu.data               3075                       # number of ReadExReq hits
system.l2.ReadExReq_hits::total                  3075                       # number of ReadExReq hits
system.l2.ReadSharedReq_hits::cpu.data         161152                       # number of ReadSharedReq hits
system.l2.ReadSharedReq_hits::total            161152                       # number of ReadSharedReq hits
system.l2.demand_hits::cpu.data                164227                       # number of demand (read+write) hits
system.l2.demand_hits::total                   164227                       # number of demand (read+write) hits
system.l2.overall_hits::cpu.data               164227                       # number of overall hits
system.l2.overall_hits::total                  164227                       # number of overall hits
system.l2.ReadExReq_misses::cpu.data            63436                       # number of ReadExReq misses
system.l2.ReadExReq_misses::total               63436                       # number of ReadExReq misses
system.l2.ReadCleanReq_misses::cpu.inst           354                       # number of ReadCleanReq misses
system.l2.ReadCleanReq_misses::total              354                       # number of ReadCleanReq misses
system.l2.ReadSharedReq_misses::cpu.data       454944                       # number of ReadSharedReq misses
system.l2.ReadSharedReq_misses::total          454944                       # number of ReadSharedReq misses
system.l2.demand_misses::cpu.inst                 354                       # number of demand (read+write) misses
system.l2.demand_misses::cpu.data              518380                       # number of demand (read+write) misses
system.l2.demand_misses::total                 518734                       # number of demand (read+write) misses
system.l2.overall_misses::cpu.inst                354                       # number of overall misses
system.l2.overall_misses::cpu.data             518380                       # number of overall misses
system.l2.overall_misses::total                518734                       # number of overall misses
system.l2.ReadExReq_miss_latency::cpu.data  20114185000                       # number of ReadExReq miss cycles
system.l2.ReadExReq_miss_latency::total   20114185000                       # number of ReadExReq miss cycles
system.l2.ReadCleanReq_miss_latency::cpu.inst     60664500                       # number of ReadCleanReq miss cycles
system.l2.ReadCleanReq_miss_latency::total     60664500                       # number of ReadCleanReq miss cycles
system.l2.ReadSharedReq_miss_latency::cpu.data 106490484000                       # number of ReadSharedReq miss cycles
system.l2.ReadSharedReq_miss_latency::total 106490484000                       # number of ReadSharedReq miss cycles
system.l2.demand_miss_latency::cpu.inst      60664500                       # number of demand (read+write) miss cycles
system.l2.demand_miss_latency::cpu.data  126604669000                       # number of demand (read+write) miss cycles
system.l2.demand_miss_latency::total     126665333500                       # number of demand (read+write) miss cycles
system.l2.overall_miss_latency::cpu.inst     60664500                       # number of overall miss cycles
system.l2.overall_miss_latency::cpu.data 126604669000                       # number of overall miss cycles
system.l2.overall_miss_latency::total    126665333500                       # number of overall miss cycles
system.l2.WritebackDirty_accesses::writebacks       657659                       # number of WritebackDirty accesses(hits+misses)
system.l2.WritebackDirty_accesses::total       657659                       # number of WritebackDirty accesses(hits+misses)
system.l2.WritebackClean_accesses::writebacks           50                       # number of WritebackClean accesses(hits+misses)
system.l2.WritebackClean_accesses::total           50                       # number of WritebackClean accesses(hits+misses)
system.l2.UpgradeReq_accesses::cpu.data        220067                       # number of UpgradeReq accesses(hits+misses)
system.l2.UpgradeReq_accesses::total           220067                       # number of UpgradeReq accesses(hits+misses)
system.l2.ReadExReq_accesses::cpu.data          66511                       # number of ReadExReq accesses(hits+misses)
system.l2.ReadExReq_accesses::total             66511                       # number of ReadExReq accesses(hits+misses)
system.l2.ReadCleanReq_accesses::cpu.inst          354                       # number of ReadCleanReq accesses(hits+misses)
system.l2.ReadCleanReq_accesses::total            354                       # number of ReadCleanReq accesses(hits+misses)
system.l2.ReadSharedReq_accesses::cpu.data       616096                       # number of ReadSharedReq accesses(hits+misses)
system.l2.ReadSharedReq_accesses::total        616096                       # number of ReadSharedReq accesses(hits+misses)
system.l2.demand_accesses::cpu.inst               354                       # number of demand (read+write) accesses
system.l2.demand_accesses::cpu.data            682607                       # number of demand (read+write) accesses
system.l2.demand_accesses::total               682961                       # number of demand (read+write) accesses
system.l2.overall_accesses::cpu.inst              354                       # number of overall (read+write) accesses
system.l2.overall_accesses::cpu.data           682607                       # number of overall (read+write) accesses
system.l2.overall_accesses::total              682961                       # number of overall (read+write) accesses
system.l2.ReadExReq_miss_rate::cpu.data      0.953767                       # miss rate for ReadExReq accesses
system.l2.ReadExReq_miss_rate::total         0.953767                       # miss rate for ReadExReq accesses
system.l2.ReadCleanReq_miss_rate::cpu.inst            1                       # miss rate for ReadCleanReq accesses
system.l2.ReadCleanReq_miss_rate::total             1                       # miss rate for ReadCleanReq accesses
system.l2.ReadSharedReq_miss_rate::cpu.data     0.738430                       # miss rate for ReadSharedReq accesses
system.l2.ReadSharedReq_miss_rate::total     0.738430                       # miss rate for ReadSharedReq accesses
system.l2.demand_miss_rate::cpu.inst                1                       # miss rate for demand accesses
system.l2.demand_miss_rate::cpu.data         0.759412                       # miss rate for demand accesses
system.l2.demand_miss_rate::total            0.759537                       # miss rate for demand accesses
system.l2.overall_miss_rate::cpu.inst               1                       # miss rate for overall accesses
system.l2.overall_miss_rate::cpu.data        0.759412                       # miss rate for overall accesses
system.l2.overall_miss_rate::total           0.759537                       # miss rate for overall accesses
system.l2.ReadExReq_avg_miss_latency::cpu.data 317078.393972                       # average ReadExReq miss latency
system.l2.ReadExReq_avg_miss_latency::total 317078.393972                       # average ReadExReq miss latency
system.l2.ReadCleanReq_avg_miss_latency::cpu.inst 171368.644068                       # average ReadCleanReq miss latency
system.l2.ReadCleanReq_avg_miss_latency::total 171368.644068                       # average ReadCleanReq miss latency
system.l2.ReadSharedReq_avg_miss_latency::cpu.data 234073.828867                       # average ReadSharedReq miss latency
system.l2.ReadSharedReq_avg_miss_latency::total 234073.828867                       # average ReadSharedReq miss latency
system.l2.demand_avg_miss_latency::cpu.inst 171368.644068                       # average overall miss latency
system.l2.demand_avg_miss_latency::cpu.data 244231.392029                       # average overall miss latency
system.l2.demand_avg_miss_latency::total 244181.668254                       # average overall miss latency
system.l2.overall_avg_miss_latency::cpu.inst 171368.644068                       # average overall miss latency
system.l2.overall_avg_miss_latency::cpu.data 244231.392029                       # average overall miss latency
system.l2.overall_avg_miss_latency::total 244181.668254                       # average overall miss latency
system.l2.blocked_cycles::no_mshrs                  0                       # number of cycles access was blocked
system.l2.blocked_cycles::no_targets                0                       # number of cycles access was blocked
system.l2.blocked::no_mshrs                         0                       # number of cycles access was blocked
system.l2.blocked::no_targets                       0                       # number of cycles access was blocked
system.l2.avg_blocked_cycles::no_mshrs            nan                       # average number of cycles each access was blocked
system.l2.avg_blocked_cycles::no_targets          nan                       # average number of cycles each access was blocked
system.l2.writebacks::writebacks               508362                       # number of writebacks
system.l2.writebacks::total                    508362                       # number of writebacks
system.l2.ReadExReq_mshr_misses::cpu.data        63436                       # number of ReadExReq MSHR misses
system.l2.ReadExReq_mshr_misses::total          63436                       # number of ReadExReq MSHR misses
system.l2.ReadCleanReq_mshr_misses::cpu.inst          354                       # number of ReadCleanReq MSHR misses
system.l2.ReadCleanReq_mshr_misses::total          354                       # number of ReadCleanReq MSHR misses
system.l2.ReadSharedReq_mshr_misses::cpu.data       454944                       # number of ReadSharedReq MSHR misses
system.l2.ReadSharedReq_mshr_misses::total       454944                       # number of ReadSharedReq MSHR misses
system.l2.demand_mshr_misses::cpu.inst            354                       # number of demand (read+write) MSHR misses
system.l2.demand_mshr_misses::cpu.data         518380                       # number of demand (read+write) MSHR misses
system.l2.demand_mshr_misses::total            518734                       # number of demand (read+write) MSHR misses
system.l2.overall_mshr_misses::cpu.inst           354                       # number of overall MSHR misses
system.l2.overall_mshr_misses::cpu.data        518380                       # number of overall MSHR misses
system.l2.overall_mshr_misses::total           518734                       # number of overall MSHR misses
system.l2.ReadExReq_mshr_miss_latency::cpu.data  19479825000                       # number of ReadExReq MSHR miss cycles
system.l2.ReadExReq_mshr_miss_latency::total  19479825000                       # number of ReadExReq MSHR miss cycles
system.l2.ReadCleanReq_mshr_miss_latency::cpu.inst     57124500                       # number of ReadCleanReq MSHR miss cycles
system.l2.ReadCleanReq_mshr_miss_latency::total     57124500                       # number of ReadCleanReq MSHR miss cycles
system.l2.ReadSharedReq_mshr_miss_latency::cpu.data 101941044000                       # number of ReadSharedReq MSHR miss cycles
system.l2.ReadSharedReq_mshr_miss_latency::total 101941044000                       # number of ReadSharedReq MSHR miss cycles
system.l2.demand_mshr_miss_latency::cpu.inst     57124500                       # number of demand (read+write) MSHR miss cycles
system.l2.demand_mshr_miss_latency::cpu.data 121420869000                       # number of demand (read+write) MSHR miss cycles
system.l2.demand_mshr_miss_latency::total 121477993500                       # number of demand (read+write) MSHR miss cycles
system.l2.overall_mshr_miss_latency::cpu.inst     57124500                       # number of overall MSHR miss cycles
system.l2.overall_mshr_miss_latency::cpu.data 121420869000                       # number of overall MSHR miss cycles
system.l2.overall_mshr_miss_latency::total 121477993500                       # number of overall MSHR miss cycles
system.l2.ReadExReq_mshr_miss_rate::cpu.data     0.953767                       # mshr miss rate for ReadExReq accesses
system.l2.ReadExReq_mshr_miss_rate::total     0.953767                       # mshr miss rate for ReadExReq accesses
system.l2.ReadCleanReq_mshr_miss_rate::cpu.inst            1                       # mshr miss rate for ReadCleanReq accesses
system.l2.ReadCleanReq_mshr_miss_rate::total            1                       # mshr miss rate for ReadCleanReq accesses
system.l2.ReadSharedReq_mshr_miss_rate::cpu.data     0.738430                       # mshr miss rate for ReadSharedReq accesses
system.l2.ReadSharedReq_mshr_miss_rate::total     0.738430                       # mshr miss rate for ReadSharedReq accesses
system.l2.demand_mshr_miss_rate::cpu.inst            1                       # mshr miss rate for demand accesses
system.l2.demand_mshr_miss_rate::cpu.data     0.759412                       # mshr miss rate for demand accesses
system.l2.demand_mshr_miss_rate::total       0.759537                       # mshr miss rate for demand accesses
system.l2.overall_mshr_miss_rate::cpu.inst            1                       # mshr miss rate for overall accesses
system.l2.overall_mshr_miss_rate::cpu.data     0.759412                       # mshr miss rate for overall accesses
system.l2.overall_mshr_miss_rate::total      0.759537                       # mshr miss rate for overall accesses
system.l2.ReadExReq_avg_mshr_miss_latency::cpu.data 307078.393972                       # average ReadExReq mshr miss latency
system.l2.ReadExReq_avg_mshr_miss_latency::total 307078.393972                       # average ReadExReq mshr miss latency
system.l2.ReadCleanReq_avg_mshr_miss_latency::cpu.inst 161368.644068                       # average ReadCleanReq mshr miss latency
system.l2.ReadCleanReq_avg_mshr_miss_latency::total 161368.644068                       # average ReadCleanReq mshr miss latency
system.l2.ReadSharedReq_avg_mshr_miss_latency::cpu.data 224073.828867                       # average ReadSharedReq mshr miss latency
system.l2.ReadSharedReq_avg_mshr_miss_latency::total 224073.828867                       # average ReadSharedReq mshr miss latency
system.l2.demand_avg_mshr_miss_latency::cpu.inst 161368.644068                       # average overall mshr miss latency
system.l2.demand_avg_mshr_miss_latency::cpu.data 234231.392029                       # average overall mshr miss latency
system.l2.demand_avg_mshr_miss_latency::total 234181.668254                       # average overall mshr miss latency
system.l2.overall_avg_mshr_miss_latency::cpu.inst 161368.644068                       # average overall mshr miss latency
system.l2.overall_avg_mshr_miss_latency::cpu.data 234231.392029                       # average overall mshr miss latency
system.l2.overall_avg_mshr_miss_latency::total 234181.668254                       # average overall mshr miss latency
system.l2.replacements                         516790                       # number of replacements
system.l3.tags.pwrStateResidencyTicks::UNDEFINED 1112010781000                       # Cumulative time (in ticks) in various power states
system.l3.tags.tagsinuse                 16152.140162                       # Cycle average of tags in use
system.l3.tags.total_refs                     1035149                       # Total number of references to valid blocks.
system.l3.tags.sampled_refs                    280120                       # Sample count of references to valid blocks.
system.l3.tags.avg_refs                      3.695377                       # Average number of references to valid blocks.
system.l3.tags.warmup_cycle                    418000                       # Cycle when the warmup percentage was hit.
system.l3.tags.occ_blocks::writebacks        1.005525                       # Average occupied blocks per requestor
system.l3.tags.occ_blocks::cpu.inst          6.690957                       # Average occupied blocks per requestor
system.l3.tags.occ_blocks::cpu.data      16144.443680                       # Average occupied blocks per requestor
system.l3.tags.occ_percent::writebacks       0.000061                       # Average percentage of cache occupancy
system.l3.tags.occ_percent::cpu.inst         0.000408                       # Average percentage of cache occupancy
system.l3.tags.occ_percent::cpu.data         0.985379                       # Average percentage of cache occupancy
system.l3.tags.occ_percent::total            0.985848                       # Average percentage of cache occupancy
system.l3.tags.occ_task_id_blocks::1024         16384                       # Occupied blocks per task id
system.l3.tags.age_task_id_blocks_1024::0           28                       # Occupied blocks per task id
system.l3.tags.age_task_id_blocks_1024::1           33                       # Occupied blocks per task id
system.l3.tags.age_task_id_blocks_1024::4        16323                       # Occupied blocks per task id
system.l3.tags.occ_task_id_percent::1024            1                       # Percentage of cache occupancy per task id
system.l3.tags.tag_accesses                   2350420                       # Number of tag accesses
system.l3.tags.data_accesses                  2350420                       # Number of data accesses
system.l3.pwrStateResidencyTicks::UNDEFINED 1112010781000                       # Cumulative time (in ticks) in various power states
system.l3.WritebackDirty_hits::writebacks       508361                       # number of WritebackDirty hits
system.l3.WritebackDirty_hits::total           508361                       # number of WritebackDirty hits
system.l3.ReadExReq_hits::cpu.data                665                       # number of ReadExReq hits
system.l3.ReadExReq_hits::total                   665                       # number of ReadExReq hits
system.l3.ReadSharedReq_hits::cpu.data         237966                       # number of ReadSharedReq hits
system.l3.ReadSharedReq_hits::total            237966                       # number of ReadSharedReq hits
system.l3.demand_hits::cpu.data                238631                       # number of demand (read+write) hits
system.l3.demand_hits::total                   238631                       # number of demand (read+write) hits
system.l3.overall_hits::cpu.data               238631                       # number of overall hits
system.l3.overall_hits::total                  238631                       # number of overall hits
system.l3.ReadExReq_misses::cpu.data            62771                       # number of ReadExReq misses
system.l3.ReadExReq_misses::total               62771                       # number of ReadExReq misses
system.l3.ReadSharedReq_misses::cpu.inst          354                       # number of ReadSharedReq misses
system.l3.ReadSharedReq_misses::cpu.data       216978                       # number of ReadSharedReq misses
system.l3.ReadSharedReq_misses::total          217332                       # number of ReadSharedReq misses
system.l3.demand_misses::cpu.inst                 354                       # number of demand (read+write) misses
system.l3.demand_misses::cpu.data              279749                       # number of demand (read+write) misses
system.l3.demand_misses::total                 280103                       # number of demand (read+write) misses
system.l3.overall_misses::cpu.inst                354                       # number of overall misses
system.l3.overall_misses::cpu.data             279749                       # number of overall misses
system.l3.overall_misses::total                280103                       # number of overall misses
system.l3.ReadExReq_miss_latency::cpu.data  18771056500                       # number of ReadExReq miss cycles
system.l3.ReadExReq_miss_latency::total   18771056500                       # number of ReadExReq miss cycles
system.l3.ReadSharedReq_miss_latency::cpu.inst     53230500                       # number of ReadSharedReq miss cycles
system.l3.ReadSharedReq_miss_latency::cpu.data  93010221000                       # number of ReadSharedReq miss cycles
system.l3.ReadSharedReq_miss_latency::total  93063451500                       # number of ReadSharedReq miss cycles
system.l3.demand_miss_latency::cpu.inst      53230500                       # number of demand (read+write) miss cycles
system.l3.demand_miss_latency::cpu.data  111781277500                       # number of demand (read+write) miss cycles
system.l3.demand_miss_latency::total     111834508000                       # number of demand (read+write) miss cycles
system.l3.overall_miss_latency::cpu.inst     53230500                       # number of overall miss cycles
system.l3.overall_miss_latency::cpu.data 111781277500                       # number of overall miss cycles
system.l3.overall_miss_latency::total    111834508000                       # number of overall miss cycles
system.l3.WritebackDirty_accesses::writebacks       508361                       # number of WritebackDirty accesses(hits+misses)
system.l3.WritebackDirty_accesses::total       508361                       # number of WritebackDirty accesses(hits+misses)
system.l3.ReadExReq_accesses::cpu.data          63436                       # number of ReadExReq accesses(hits+misses)
system.l3.ReadExReq_accesses::total             63436                       # number of ReadExReq accesses(hits+misses)
system.l3.ReadSharedReq_accesses::cpu.inst          354                       # number of ReadSharedReq accesses(hits+misses)
system.l3.ReadSharedReq_accesses::cpu.data       454944                       # number of ReadSharedReq accesses(hits+misses)
system.l3.ReadSharedReq_accesses::total        455298                       # number of ReadSharedReq accesses(hits+misses)
system.l3.demand_accesses::cpu.inst               354                       # number of demand (read+write) accesses
system.l3.demand_accesses::cpu.data            518380                       # number of demand (read+write) accesses
system.l3.demand_accesses::total               518734                       # number of demand (read+write) accesses
system.l3.overall_accesses::cpu.inst              354                       # number of overall (read+write) accesses
system.l3.overall_accesses::cpu.data           518380                       # number of overall (read+write) accesses
system.l3.overall_accesses::total              518734                       # number of overall (read+write) accesses
system.l3.ReadExReq_miss_rate::cpu.data      0.989517                       # miss rate for ReadExReq accesses
system.l3.ReadExReq_miss_rate::total         0.989517                       # miss rate for ReadExReq accesses
system.l3.ReadSharedReq_miss_rate::cpu.inst            1                       # miss rate for ReadSharedReq accesses
system.l3.ReadSharedReq_miss_rate::cpu.data     0.476933                       # miss rate for ReadSharedReq accesses
system.l3.ReadSharedReq_miss_rate::total     0.477340                       # miss rate for ReadSharedReq accesses
system.l3.demand_miss_rate::cpu.inst                1                       # miss rate for demand accesses
system.l3.demand_miss_rate::cpu.data         0.539660                       # miss rate for demand accesses
system.l3.demand_miss_rate::total            0.539974                       # miss rate for demand accesses
system.l3.overall_miss_rate::cpu.inst               1                       # miss rate for overall accesses
system.l3.overall_miss_rate::cpu.data        0.539660                       # miss rate for overall accesses
system.l3.overall_miss_rate::total           0.539974                       # miss rate for overall accesses
system.l3.ReadExReq_avg_miss_latency::cpu.data 299040.265409                       # average ReadExReq miss latency
system.l3.ReadExReq_avg_miss_latency::total 299040.265409                       # average ReadExReq miss latency
system.l3.ReadSharedReq_avg_miss_latency::cpu.inst 150368.644068                       # average ReadSharedReq miss latency
system.l3.ReadSharedReq_avg_miss_latency::cpu.data 428661.988773                       # average ReadSharedReq miss latency
system.l3.ReadSharedReq_avg_miss_latency::total 428208.692231                       # average ReadSharedReq miss latency
system.l3.demand_avg_miss_latency::cpu.inst 150368.644068                       # average overall miss latency
system.l3.demand_avg_miss_latency::cpu.data 399577.040490                       # average overall miss latency
system.l3.demand_avg_miss_latency::total 399262.085733                       # average overall miss latency
system.l3.overall_avg_miss_latency::cpu.inst 150368.644068                       # average overall miss latency
system.l3.overall_avg_miss_latency::cpu.data 399577.040490                       # average overall miss latency
system.l3.overall_avg_miss_latency::total 399262.085733                       # average overall miss latency
system.l3.blocked_cycles::no_mshrs                  0                       # number of cycles access was blocked
system.l3.blocked_cycles::no_targets                0                       # number of cycles access was blocked
system.l3.blocked::no_mshrs                         0                       # number of cycles access was blocked
system.l3.blocked::no_targets                       0                       # number of cycles access was blocked
system.l3.avg_blocked_cycles::no_mshrs            nan                       # average number of cycles each access was blocked
system.l3.avg_blocked_cycles::no_targets          nan                       # average number of cycles each access was blocked
system.l3.writebacks::writebacks               256972                       # number of writebacks
system.l3.writebacks::total                    256972                       # number of writebacks
system.l3.CleanEvict_mshr_misses::writebacks            1                       # number of CleanEvict MSHR misses
system.l3.CleanEvict_mshr_misses::total             1                       # number of CleanEvict MSHR misses
system.l3.ReadExReq_mshr_misses::cpu.data        62771                       # number of ReadExReq MSHR misses
system.l3.ReadExReq_mshr_misses::total          62771                       # number of ReadExReq MSHR misses
system.l3.ReadSharedReq_mshr_misses::cpu.inst          354                       # number of ReadSharedReq MSHR misses
system.l3.ReadSharedReq_mshr_misses::cpu.data       216978                       # number of ReadSharedReq MSHR misses
system.l3.ReadSharedReq_mshr_misses::total       217332                       # number of ReadSharedReq MSHR misses
system.l3.demand_mshr_misses::cpu.inst            354                       # number of demand (read+write) MSHR misses
system.l3.demand_mshr_misses::cpu.data         279749                       # number of demand (read+write) MSHR misses
system.l3.demand_mshr_misses::total            280103                       # number of demand (read+write) MSHR misses
system.l3.overall_mshr_misses::cpu.inst           354                       # number of overall MSHR misses
system.l3.overall_mshr_misses::cpu.data        279749                       # number of overall MSHR misses
system.l3.overall_mshr_misses::total           280103                       # number of overall MSHR misses
system.l3.ReadExReq_mshr_miss_latency::cpu.data  17766720500                       # number of ReadExReq MSHR miss cycles
system.l3.ReadExReq_mshr_miss_latency::total  17766720500                       # number of ReadExReq MSHR miss cycles
system.l3.ReadSharedReq_mshr_miss_latency::cpu.inst     47566500                       # number of ReadSharedReq MSHR miss cycles
system.l3.ReadSharedReq_mshr_miss_latency::cpu.data  89538573000                       # number of ReadSharedReq MSHR miss cycles
system.l3.ReadSharedReq_mshr_miss_latency::total  89586139500                       # number of ReadSharedReq MSHR miss cycles
system.l3.demand_mshr_miss_latency::cpu.inst     47566500                       # number of demand (read+write) MSHR miss cycles
system.l3.demand_mshr_miss_latency::cpu.data 107305293500                       # number of demand (read+write) MSHR miss cycles
system.l3.demand_mshr_miss_latency::total 107352860000                       # number of demand (read+write) MSHR miss cycles
system.l3.overall_mshr_miss_latency::cpu.inst     47566500                       # number of overall MSHR miss cycles
system.l3.overall_mshr_miss_latency::cpu.data 107305293500                       # number of overall MSHR miss cycles
system.l3.overall_mshr_miss_latency::total 107352860000                       # number of overall MSHR miss cycles
system.l3.CleanEvict_mshr_miss_rate::writebacks          inf                       # mshr miss rate for CleanEvict accesses
system.l3.CleanEvict_mshr_miss_rate::total          inf                       # mshr miss rate for CleanEvict accesses
system.l3.ReadExReq_mshr_miss_rate::cpu.data     0.989517                       # mshr miss rate for ReadExReq accesses
system.l3.ReadExReq_mshr_miss_rate::total     0.989517                       # mshr miss rate for ReadExReq accesses
system.l3.ReadSharedReq_mshr_miss_rate::cpu.inst            1                       # mshr miss rate for ReadSharedReq accesses
system.l3.ReadSharedReq_mshr_miss_rate::cpu.data     0.476933                       # mshr miss rate for ReadSharedReq accesses
system.l3.ReadSharedReq_mshr_miss_rate::total     0.477340                       # mshr miss rate for ReadSharedReq accesses
system.l3.demand_mshr_miss_rate::cpu.inst            1                       # mshr miss rate for demand accesses
system.l3.demand_mshr_miss_rate::cpu.data     0.539660                       # mshr miss rate for demand accesses
system.l3.demand_mshr_miss_rate::total       0.539974                       # mshr miss rate for demand accesses
system.l3.overall_mshr_miss_rate::cpu.inst            1                       # mshr miss rate for overall accesses
system.l3.overall_mshr_miss_rate::cpu.data     0.539660                       # mshr miss rate for overall accesses
system.l3.overall_mshr_miss_rate::total      0.539974                       # mshr miss rate for overall accesses
system.l3.ReadExReq_avg_mshr_miss_latency::cpu.data 283040.265409                       # average ReadExReq mshr miss latency
system.l3.ReadExReq_avg_mshr_miss_latency::total 283040.265409                       # average ReadExReq mshr miss latency
system.l3.ReadSharedReq_avg_mshr_miss_latency::cpu.inst 134368.644068                       # average ReadSharedReq mshr miss latency
system.l3.ReadSharedReq_avg_mshr_miss_latency::cpu.data 412661.988773                       # average ReadSharedReq mshr miss latency
system.l3.ReadSharedReq_avg_mshr_miss_latency::total 412208.692231                       # average ReadSharedReq mshr miss latency
system.l3.demand_avg_mshr_miss_latency::cpu.inst 134368.644068                       # average overall mshr miss latency
system.l3.demand_avg_mshr_miss_latency::cpu.data 383577.040490                       # average overall mshr miss latency
system.l3.demand_avg_mshr_miss_latency::total 383262.085733                       # average overall mshr miss latency
system.l3.overall_avg_mshr_miss_latency::cpu.inst 134368.644068                       # average overall mshr miss latency
system.l3.overall_avg_mshr_miss_latency::cpu.data 383577.040490                       # average overall mshr miss latency
system.l3.overall_avg_mshr_miss_latency::total 383262.085733                       # average overall mshr miss latency
system.l3.replacements                         263736                       # number of replacements
system.membus.snoop_filter.tot_requests        543570                       # Total number of requests made to the snoop filter.
system.membus.snoop_filter.hit_single_requests       263467                       # Number of requests hitting in the snoop filter with a single holder of the requested data.
system.membus.snoop_filter.hit_multi_requests            0                       # Number of requests hitting in the snoop filter with multiple (>1) holders of the requested data.
system.membus.snoop_filter.tot_snoops               0                       # Total number of snoops made to the snoop filter.
system.membus.snoop_filter.hit_single_snoops            0                       # Number of snoops hitting in the snoop filter with a single holder of the requested data.
system.membus.snoop_filter.hit_multi_snoops            0                       # Number of snoops hitting in the snoop filter with multiple (>1) holders of the requested data.
system.membus.pwrStateResidencyTicks::UNDEFINED 1112010781000                       # Cumulative time (in ticks) in various power states
system.membus.trans_dist::ReadResp             217332                       # Transaction distribution
system.membus.trans_dist::WritebackDirty       256972                       # Transaction distribution
system.membus.trans_dist::CleanEvict             6469                       # Transaction distribution
system.membus.trans_dist::ReadExReq             62771                       # Transaction distribution
system.membus.trans_dist::ReadExResp            62771                       # Transaction distribution
system.membus.trans_dist::ReadSharedReq        217332                       # Transaction distribution
system.membus.pkt_count_system.l3.mem_side::system.mem_ctrls.port       823647                       # Packet count per connected master and slave (bytes)
system.membus.pkt_count_system.l3.mem_side::total       823647                       # Packet count per connected master and slave (bytes)
system.membus.pkt_count::total                 823647                       # Packet count per connected master and slave (bytes)
system.membus.pkt_size_system.l3.mem_side::system.mem_ctrls.port     34372800                       # Cumulative packet size per connected master and slave (bytes)
system.membus.pkt_size_system.l3.mem_side::total     34372800                       # Cumulative packet size per connected master and slave (bytes)
system.membus.pkt_size::total                34372800                       # Cumulative packet size per connected master and slave (bytes)
system.membus.snoops                                0                       # Total snoops (count)
system.membus.snoopTraffic                          0                       # Total snoop traffic (bytes)
system.membus.snoop_fanout::samples            280103                       # Request fanout histogram
system.membus.snoop_fanout::mean                    0                       # Request fanout histogram
system.membus.snoop_fanout::stdev                   0                       # Request fanout histogram
system.membus.snoop_fanout::underflows              0      0.00%      0.00% # Request fanout histogram
system.membus.snoop_fanout::0                  280103    100.00%    100.00% # Request fanout histogram
system.membus.snoop_fanout::1                       0      0.00%    100.00% # Request fanout histogram
system.membus.snoop_fanout::overflows               0      0.00%    100.00% # Request fanout histogram
system.membus.snoop_fanout::min_value               0                       # Request fanout histogram
system.membus.snoop_fanout::max_value               0                       # Request fanout histogram
system.membus.snoop_fanout::total              280103                       # Request fanout histogram
system.membus.reqLayer2.occupancy          1571460500                       # Layer occupancy (ticks)
system.membus.reqLayer2.utilization               0.1                       # Layer utilization (%)
system.membus.respLayer1.occupancy         1400517500                       # Layer occupancy (ticks)
system.membus.respLayer1.utilization              0.1                       # Layer utilization (%)
system.tol2bus.snoop_filter.tot_requests      1585173                       # Total number of requests made to the snoop filter.
system.tol2bus.snoop_filter.hit_single_requests       902212                       # Number of requests hitting in the snoop filter with a single holder of the requested data.
system.tol2bus.snoop_filter.hit_multi_requests            0                       # Number of requests hitting in the snoop filter with multiple (>1) holders of the requested data.
system.tol2bus.snoop_filter.tot_snoops            669                       # Total number of snoops made to the snoop filter.
system.tol2bus.snoop_filter.hit_single_snoops          669                       # Number of snoops hitting in the snoop filter with a single holder of the requested data.
system.tol2bus.snoop_filter.hit_multi_snoops            0                       # Number of snoops hitting in the snoop filter with multiple (>1) holders of the requested data.
system.tol2bus.pwrStateResidencyTicks::UNDEFINED 1112010781000                       # Cumulative time (in ticks) in various power states
system.tol2bus.trans_dist::ReadResp            616450                       # Transaction distribution
system.tol2bus.trans_dist::WritebackDirty      1422993                       # Transaction distribution
system.tol2bus.trans_dist::WritebackClean           50                       # Transaction distribution
system.tol2bus.trans_dist::CleanEvict           39628                       # Transaction distribution
system.tol2bus.trans_dist::UpgradeReq          220067                       # Transaction distribution
system.tol2bus.trans_dist::UpgradeResp         220067                       # Transaction distribution
system.tol2bus.trans_dist::ReadExReq            66511                       # Transaction distribution
system.tol2bus.trans_dist::ReadExResp           66511                       # Transaction distribution
system.tol2bus.trans_dist::ReadCleanReq           354                       # Transaction distribution
system.tol2bus.trans_dist::ReadSharedReq       616096                       # Transaction distribution
system.tol2bus.pkt_count_system.cpu.icache.mem_side::system.l2.cpu_side          758                       # Packet count per connected master and slave (bytes)
system.tol2bus.pkt_count_system.cpu.dcache.mem_side::system.l2.cpu_side      2487443                       # Packet count per connected master and slave (bytes)
system.tol2bus.pkt_count::total               2488201                       # Packet count per connected master and slave (bytes)
system.tol2bus.pkt_size_system.cpu.icache.mem_side::system.l2.cpu_side        25856                       # Cumulative packet size per connected master and slave (bytes)
system.tol2bus.pkt_size_system.cpu.dcache.mem_side::system.l2.cpu_side     85777024                       # Cumulative packet size per connected master and slave (bytes)
system.tol2bus.pkt_size::total               85802880                       # Cumulative packet size per connected master and slave (bytes)
system.tol2bus.snoops                          780526                       # Total snoops (count)
system.tol2bus.snoopTraffic                  48981376                       # Total snoop traffic (bytes)
system.tol2bus.snoop_fanout::samples          1683554                       # Request fanout histogram
system.tol2bus.snoop_fanout::mean            0.000397                       # Request fanout histogram
system.tol2bus.snoop_fanout::stdev           0.019930                       # Request fanout histogram
system.tol2bus.snoop_fanout::underflows             0      0.00%      0.00% # Request fanout histogram
system.tol2bus.snoop_fanout::0                1682885     99.96%     99.96% # Request fanout histogram
system.tol2bus.snoop_fanout::1                    669      0.04%    100.00% # Request fanout histogram
system.tol2bus.snoop_fanout::2                      0      0.00%    100.00% # Request fanout histogram
system.tol2bus.snoop_fanout::3                      0      0.00%    100.00% # Request fanout histogram
system.tol2bus.snoop_fanout::4                      0      0.00%    100.00% # Request fanout histogram
system.tol2bus.snoop_fanout::overflows              0      0.00%    100.00% # Request fanout histogram
system.tol2bus.snoop_fanout::min_value              0                       # Request fanout histogram
system.tol2bus.snoop_fanout::max_value              1                       # Request fanout histogram
system.tol2bus.snoop_fanout::total            1683554                       # Request fanout histogram
system.tol2bus.reqLayer0.occupancy         1450295500                       # Layer occupancy (ticks)
system.tol2bus.reqLayer0.utilization              0.1                       # Layer utilization (%)
system.tol2bus.respLayer0.occupancy            531000                       # Layer occupancy (ticks)
system.tol2bus.respLayer0.utilization             0.0                       # Layer utilization (%)
system.tol2bus.respLayer1.occupancy        1133944000                       # Layer occupancy (ticks)
system.tol2bus.respLayer1.utilization             0.1                       # Layer utilization (%)
system.tol3bus.pwrStateResidencyTicks::UNDEFINED 1112010781000                       # Cumulative time (in ticks) in various power states
system.tol3bus.trans_dist::ReadResp            455298                       # Transaction distribution
system.tol3bus.trans_dist::WritebackDirty       765333                       # Transaction distribution
system.tol3bus.trans_dist::CleanEvict           14819                       # Transaction distribution
system.tol3bus.trans_dist::ReadExReq            63436                       # Transaction distribution
system.tol3bus.trans_dist::ReadExResp           63436                       # Transaction distribution
system.tol3bus.trans_dist::ReadSharedReq       455298                       # Transaction distribution
system.tol3bus.pkt_count_system.l2.mem_side::system.l3.cpu_side      1553884                       # Packet count per connected master and slave (bytes)
system.tol3bus.pkt_size_system.l2.mem_side::system.l3.cpu_side     65734080                       # Cumulative packet size per connected master and slave (bytes)
system.tol3bus.snoops                          263736                       # Total snoops (count)
system.tol3bus.snoopTraffic                  16446208                       # Total snoop traffic (bytes)
system.tol3bus.snoop_fanout::samples          1298886                       # Request fanout histogram
system.tol3bus.snoop_fanout::mean            0.203048                       # Request fanout histogram
system.tol3bus.snoop_fanout::stdev           0.402268                       # Request fanout histogram
system.tol3bus.snoop_fanout::underflows             0      0.00%      0.00% # Request fanout histogram
system.tol3bus.snoop_fanout::0                1035150     79.70%     79.70% # Request fanout histogram
system.tol3bus.snoop_fanout::1                 263736     20.30%    100.00% # Request fanout histogram
system.tol3bus.snoop_fanout::overflows              0      0.00%    100.00% # Request fanout histogram
system.tol3bus.snoop_fanout::min_value              0                       # Request fanout histogram
system.tol3bus.snoop_fanout::max_value              1                       # Request fanout histogram
system.tol3bus.snoop_fanout::total            1298886                       # Request fanout histogram
system.tol3bus.reqLayer0.occupancy         1025936000                       # Layer occupancy (ticks)
system.tol3bus.reqLayer0.utilization              0.1                       # Layer utilization (%)
system.tol3bus.respLayer0.occupancy         778101000                       # Layer occupancy (ticks)
system.tol3bus.respLayer0.utilization             0.1                       # Layer utilization (%)

---------- End Simulation Statistics   ----------
